
     RDKit          3D

 63 67  0  0  0  0  0  0  0  0999 V2000
   -8.7160  -10.9010   16.0530 C   0  0  0  0  0  0  0  0  0  0  0  0
   -8.7850  -10.6200   14.6740 O   0  0  0  0  0  0  0  0  0  0  0  0
   -9.9270  -10.9420   13.9390 C   0  0  0  0  0  0  0  0  0  0  0  0
  -11.1620  -10.9960   14.5560 C   0  0  0  0  0  0  0  0  0  0  0  0
  -12.2840  -11.3210   13.7970 C   0  0  0  0  0  0  0  0  0  0  0  0
  -12.2020  -11.5900   12.4520 C   0  0  0  0  0  0  0  0  0  0  0  0
  -13.4370  -11.9170   11.6960 C   0  0  0  0  0  0  0  0  0  0  0  0
  -13.6620  -13.3660   11.6490 C   0  0  0  0  0  0  0  0  0  0  0  0
  -13.8280  -13.8680   10.4790 O   0  0  0  0  0  0  0  0  0  0  0  0
  -13.7210  -14.2870   12.7160 N   0  0  0  0  0  0  0  0  0  0  0  0
  -14.9470  -14.9140   13.1250 C   0  0  0  0  0  0  0  0  0  0  0  0
  -14.6970  -16.4180   13.2220 C   0  0  0  0  0  0  0  0  0  0  0  0
  -13.7520  -16.8820   12.3460 O   0  0  0  0  0  0  0  0  0  0  0  0
  -12.4840  -16.9840   12.9290 C   0  0  0  0  0  0  0  0  0  0  0  0
  -11.6950  -15.7400   12.7760 C   0  0  2  0  0  0  0  0  0  0  0  0
  -10.3650  -15.7200   13.4610 C   0  0  0  0  0  0  0  0  0  0  0  0
   -9.2870  -14.9490   12.8350 C   0  0  0  0  0  0  0  0  0  0  0  0
   -9.3280  -14.7980   11.4540 C   0  0  0  0  0  0  0  0  0  0  0  0
   -8.3250  -14.1340   10.7960 C   0  0  0  0  0  0  0  0  0  0  0  0
   -7.2540  -13.6000   11.4810 C   0  0  0  0  0  0  0  0  0  0  0  0
   -7.2090  -13.7460   12.8600 C   0  0  0  0  0  0  0  0  0  0  0  0
   -6.3140  -13.3100   13.7850 N   0  0  0  0  0  0  0  0  0  0  0  0
   -6.7290  -13.6790   14.9970 N   0  0  0  0  0  0  0  0  0  0  0  0
   -7.8810  -14.3480   14.8520 C   0  0  0  0  0  0  0  0  0  0  0  0
   -8.2220  -14.4140   13.4980 C   0  0  0  0  0  0  0  0  0  0  0  0
  -12.4460  -14.5300   13.3650 C   0  0  0  0  0  0  0  0  0  0  0  0
  -14.5370  -11.1380   12.3960 C   0  0  0  0  0  0  0  0  0  0  0  0
  -14.8100   -9.9140   11.5690 C   0  0  0  0  0  0  0  0  0  0  0  0
  -13.9550   -9.9930   10.3250 C   0  0  0  0  0  0  0  0  0  0  0  0
  -13.3080  -11.3270   10.3100 C   0  0  0  0  0  0  0  0  0  0  0  0
  -10.9630  -11.5250   11.8730 C   0  0  0  0  0  0  0  0  0  0  0  0
   -9.8090  -11.2030   12.5980 C   0  0  0  0  0  0  0  0  0  0  0  0
   -8.9401   -9.9884   16.6248 H   0  0  0  0  0  0  0  0  0  0  0  0
   -9.4493  -11.6812   16.3054 H   0  0  0  0  0  0  0  0  0  0  0  0
   -7.7048  -11.2528   16.3054 H   0  0  0  0  0  0  0  0  0  0  0  0
  -11.2580  -10.7853   15.6314 H   0  0  0  0  0  0  0  0  0  0  0  0
  -13.2665  -11.3636   14.2899 H   0  0  0  0  0  0  0  0  0  0  0  0
  -15.2577  -14.5230   14.1051 H   0  0  0  0  0  0  0  0  0  0  0  0
  -15.7451  -14.7049   12.3974 H   0  0  0  0  0  0  0  0  0  0  0  0
  -14.3637  -16.6483   14.2447 H   0  0  0  0  0  0  0  0  0  0  0  0
  -15.6432  -16.9158   12.9635 H   0  0  0  0  0  0  0  0  0  0  0  0
  -12.6036  -17.1978   14.0014 H   0  0  0  0  0  0  0  0  0  0  0  0
  -11.9415  -17.7925   12.4171 H   0  0  0  0  0  0  0  0  0  0  0  0
  -11.5437  -15.6922   11.6875 H   0  0  0  0  0  0  0  0  0  0  0  0
  -10.5209  -15.3079   14.4689 H   0  0  0  0  0  0  0  0  0  0  0  0
  -10.0179  -16.7632   13.4241 H   0  0  0  0  0  0  0  0  0  0  0  0
  -10.1718  -15.2145   10.8844 H   0  0  0  0  0  0  0  0  0  0  0  0
   -8.3756  -14.0254    9.7025 H   0  0  0  0  0  0  0  0  0  0  0  0
   -6.4526  -13.0697   10.9457 H   0  0  0  0  0  0  0  0  0  0  0  0
   -5.4570  -12.7780   13.5420 H   0  0  0  0  0  0  0  0  0  0  0  0
   -8.4697  -14.7802   15.6746 H   0  0  0  0  0  0  0  0  0  0  0  0
  -12.6259  -14.7150   14.4343 H   0  0  0  0  0  0  0  0  0  0  0  0
  -11.8184  -13.6411   13.2036 H   0  0  0  0  0  0  0  0  0  0  0  0
  -15.4459  -11.7532   12.4700 H   0  0  0  0  0  0  0  0  0  0  0  0
  -14.2307  -10.8601   13.4153 H   0  0  0  0  0  0  0  0  0  0  0  0
  -15.8735   -9.8811   11.2900 H   0  0  0  0  0  0  0  0  0  0  0  0
  -14.5717   -9.0048   12.1404 H   0  0  0  0  0  0  0  0  0  0  0  0
  -14.5827   -9.8704    9.4300 H   0  0  0  0  0  0  0  0  0  0  0  0
  -13.1970   -9.1959   10.3258 H   0  0  0  0  0  0  0  0  0  0  0  0
  -13.8085  -11.9778    9.5779 H   0  0  0  0  0  0  0  0  0  0  0  0
  -12.2489  -11.2379   10.0266 H   0  0  0  0  0  0  0  0  0  0  0  0
  -10.8705  -11.7337   10.7970 H   0  0  0  0  0  0  0  0  0  0  0  0
   -8.8281  -11.1603   12.1020 H   0  0  0  0  0  0  0  0  0  0  0  0
  1  2  1  0
  2  3  1  0
  3  4  2  0
  4  5  1  0
  5  6  2  0
  6  7  1  0
  7  8  1  0
  8  9  2  0
  8 10  1  0
 10 11  1  0
 11 12  1  0
 12 13  1  0
 13 14  1  0
 14 15  1  0
 15 16  1  0
 16 17  1  0
 17 18  2  0
 18 19  1  0
 19 20  2  0
 20 21  1  0
 21 22  1  0
 22 23  1  0
 23 24  2  0
 24 25  1  0
 15 26  1  0
  7 27  1  0
 27 28  1  0
 28 29  1  0
 29 30  1  0
  6 31  1  0
 31 32  2  0
 32  3  1  0
 30  7  1  0
 26 10  1  0
 25 17  1  0
 25 21  2  0
  1 33  1  0
  1 34  1  0
  1 35  1  0
  4 36  1  0
  5 37  1  0
 11 38  1  0
 11 39  1  0
 12 40  1  0
 12 41  1  0
 14 42  1  0
 14 43  1  0
 15 44  1  6
 16 45  1  0
 16 46  1  0
 18 47  1  0
 19 48  1  0
 20 49  1  0
 22 50  1  0
 24 51  1  0
 26 52  1  0
 26 53  1  0
 27 54  1  0
 27 55  1  0
 28 56  1  0
 28 57  1  0
 29 58  1  0
 29 59  1  0
 30 60  1  0
 30 61  1  0
 31 62  1  0
 32 63  1  0
M  END
$$$$

     RDKit          3D

 63 67  0  0  0  0  0  0  0  0999 V2000
   -8.6530  -11.7230   15.6080 C   0  0  0  0  0  0  0  0  0  0  0  0
   -9.0400  -10.8030   14.6130 O   0  0  0  0  0  0  0  0  0  0  0  0
  -10.1720  -11.0370   13.8310 C   0  0  0  0  0  0  0  0  0  0  0  0
  -10.0450  -11.5110   12.5400 C   0  0  0  0  0  0  0  0  0  0  0  0
  -11.1930  -11.7350   11.7840 C   0  0  0  0  0  0  0  0  0  0  0  0
  -12.4520  -11.4970   12.2810 C   0  0  0  0  0  0  0  0  0  0  0  0
  -13.6370  -11.7670   11.4300 C   0  0  0  0  0  0  0  0  0  0  0  0
  -13.9330  -13.2030   11.3710 C   0  0  0  0  0  0  0  0  0  0  0  0
  -14.2410  -13.6630   10.2130 O   0  0  0  0  0  0  0  0  0  0  0  0
  -13.9260  -14.1500   12.4160 N   0  0  0  0  0  0  0  0  0  0  0  0
  -14.9100  -14.1490   13.4630 C   0  0  0  0  0  0  0  0  0  0  0  0
  -14.1810  -13.9730   14.7940 C   0  0  0  0  0  0  0  0  0  0  0  0
  -13.0280  -14.7050   14.8980 O   0  0  0  0  0  0  0  0  0  0  0  0
  -13.2260  -16.0630   14.6210 C   0  0  0  0  0  0  0  0  0  0  0  0
  -13.1020  -16.3760   13.1790 C   0  0  2  0  0  0  0  0  0  0  0  0
  -11.9840  -17.3010   12.8110 C   0  0  0  0  0  0  0  0  0  0  0  0
  -12.1870  -18.7360   13.0320 C   0  0  0  0  0  0  0  0  0  0  0  0
  -11.0650  -19.5030   13.3220 C   0  0  0  0  0  0  0  0  0  0  0  0
  -11.1730  -20.8600   13.4860 C   0  0  0  0  0  0  0  0  0  0  0  0
  -12.3910  -21.4980   13.3720 C   0  0  0  0  0  0  0  0  0  0  0  0
  -13.5140  -20.7360   13.0840 C   0  0  0  0  0  0  0  0  0  0  0  0
  -14.8220  -21.0760   12.9440 N   0  0  0  0  0  0  0  0  0  0  0  0
  -15.5320  -19.9730   12.6990 N   0  0  0  0  0  0  0  0  0  0  0  0
  -14.6860  -18.9350   12.6810 C   0  0  0  0  0  0  0  0  0  0  0  0
  -13.3830  -19.3810   12.9220 C   0  0  0  0  0  0  0  0  0  0  0  0
  -12.8380  -15.1070   12.3450 C   0  0  0  0  0  0  0  0  0  0  0  0
  -14.7480  -10.9260   12.0370 C   0  0  0  0  0  0  0  0  0  0  0  0
  -14.8900   -9.6960   11.1850 C   0  0  0  0  0  0  0  0  0  0  0  0
  -13.9430   -9.8300   10.0140 C   0  0  0  0  0  0  0  0  0  0  0  0
  -13.3680  -11.1950   10.0560 C   0  0  0  0  0  0  0  0  0  0  0  0
  -12.5420  -11.0290   13.5650 C   0  0  0  0  0  0  0  0  0  0  0  0
  -11.4130  -10.7910   14.3600 C   0  0  0  0  0  0  0  0  0  0  0  0
   -8.8362  -11.2874   16.6013 H   0  0  0  0  0  0  0  0  0  0  0  0
   -9.2382  -12.6481   15.4996 H   0  0  0  0  0  0  0  0  0  0  0  0
   -7.5825  -11.9516   15.4996 H   0  0  0  0  0  0  0  0  0  0  0  0
   -9.0502  -11.7090   12.1145 H   0  0  0  0  0  0  0  0  0  0  0  0
  -11.0887  -12.1144   10.7568 H   0  0  0  0  0  0  0  0  0  0  0  0
  -15.6161  -13.3193   13.3112 H   0  0  0  0  0  0  0  0  0  0  0  0
  -15.4750  -15.0928   13.4580 H   0  0  0  0  0  0  0  0  0  0  0  0
  -13.9273  -12.9091   14.9115 H   0  0  0  0  0  0  0  0  0  0  0  0
  -14.8603  -14.3353   15.5796 H   0  0  0  0  0  0  0  0  0  0  0  0
  -12.4762  -16.6479   15.1738 H   0  0  0  0  0  0  0  0  0  0  0  0
  -14.2502  -16.3192   14.9298 H   0  0  0  0  0  0  0  0  0  0  0  0
  -14.0669  -16.8580   12.9629 H   0  0  0  0  0  0  0  0  0  0  0  0
  -11.7793  -17.1592   11.7396 H   0  0  0  0  0  0  0  0  0  0  0  0
  -11.1623  -17.0284   13.4896 H   0  0  0  0  0  0  0  0  0  0  0  0
  -10.0828  -19.0177   13.4207 H   0  0  0  0  0  0  0  0  0  0  0  0
  -10.2728  -21.4503   13.7124 H   0  0  0  0  0  0  0  0  0  0  0  0
  -12.4699  -22.5869   13.5065 H   0  0  0  0  0  0  0  0  0  0  0  0
  -15.1710  -22.0500   13.0230 H   0  0  0  0  0  0  0  0  0  0  0  0
  -14.9733  -17.8882   12.5032 H   0  0  0  0  0  0  0  0  0  0  0  0
  -11.9219  -14.6257   12.7181 H   0  0  0  0  0  0  0  0  0  0  0  0
  -12.7380  -15.4167   11.2942 H   0  0  0  0  0  0  0  0  0  0  0  0
  -15.6907  -11.4928   12.0407 H   0  0  0  0  0  0  0  0  0  0  0  0
  -14.5100  -10.6558   13.0764 H   0  0  0  0  0  0  0  0  0  0  0  0
  -15.9246   -9.6108   10.8211 H   0  0  0  0  0  0  0  0  0  0  0  0
  -14.6514   -8.7953   11.7696 H   0  0  0  0  0  0  0  0  0  0  0  0
  -14.4896   -9.6822    9.0709 H   0  0  0  0  0  0  0  0  0  0  0  0
  -13.1465   -9.0736   10.0731 H   0  0  0  0  0  0  0  0  0  0  0  0
  -13.8423  -11.8248    9.2889 H   0  0  0  0  0  0  0  0  0  0  0  0
  -12.2865  -11.1630    9.8577 H   0  0  0  0  0  0  0  0  0  0  0  0
  -13.5382  -10.8326   13.9881 H   0  0  0  0  0  0  0  0  0  0  0  0
  -11.5200  -10.4143   15.3879 H   0  0  0  0  0  0  0  0  0  0  0  0
  1  2  1  0
  2  3  1  0
  3  4  2  0
  4  5  1  0
  5  6  2  0
  6  7  1  0
  7  8  1  0
  8  9  2  0
  8 10  1  0
 10 11  1  0
 11 12  1  0
 12 13  1  0
 13 14  1  0
 14 15  1  0
 15 16  1  0
 16 17  1  0
 17 18  2  0
 18 19  1  0
 19 20  2  0
 20 21  1  0
 21 22  1  0
 22 23  1  0
 23 24  2  0
 24 25  1  0
 15 26  1  0
  7 27  1  0
 27 28  1  0
 28 29  1  0
 29 30  1  0
  6 31  1  0
 31 32  2  0
 32  3  1  0
 30  7  1  0
 26 10  1  0
 25 17  1  0
 25 21  2  0
  1 33  1  0
  1 34  1  0
  1 35  1  0
  4 36  1  0
  5 37  1  0
 11 38  1  0
 11 39  1  0
 12 40  1  0
 12 41  1  0
 14 42  1  0
 14 43  1  0
 15 44  1  6
 16 45  1  0
 16 46  1  0
 18 47  1  0
 19 48  1  0
 20 49  1  0
 22 50  1  0
 24 51  1  0
 26 52  1  0
 26 53  1  0
 27 54  1  0
 27 55  1  0
 28 56  1  0
 28 57  1  0
 29 58  1  0
 29 59  1  0
 30 60  1  0
 30 61  1  0
 31 62  1  0
 32 63  1  0
M  END
$$$$

     RDKit          3D

 63 67  0  0  0  0  0  0  0  0999 V2000
   -7.9230  -11.5820   14.3280 C   0  0  0  0  0  0  0  0  0  0  0  0
   -9.0680  -10.7720   14.4730 O   0  0  0  0  0  0  0  0  0  0  0  0
  -10.2030  -11.0020   13.6930 C   0  0  0  0  0  0  0  0  0  0  0  0
  -11.4650  -10.8250   14.2260 C   0  0  0  0  0  0  0  0  0  0  0  0
  -12.5790  -11.0620   13.4240 C   0  0  0  0  0  0  0  0  0  0  0  0
  -12.4630  -11.4680   12.1160 C   0  0  0  0  0  0  0  0  0  0  0  0
  -13.6880  -11.6920   11.3090 C   0  0  0  0  0  0  0  0  0  0  0  0
  -14.0240  -13.1190   11.2400 C   0  0  0  0  0  0  0  0  0  0  0  0
  -14.1920  -13.5970   10.0600 O   0  0  0  0  0  0  0  0  0  0  0  0
  -14.1880  -14.0410   12.2940 N   0  0  0  0  0  0  0  0  0  0  0  0
  -15.2180  -13.9010   13.2860 C   0  0  0  0  0  0  0  0  0  0  0  0
  -14.5440  -13.6610   14.6360 C   0  0  0  0  0  0  0  0  0  0  0  0
  -13.2950  -14.2140   14.7390 O   0  0  0  0  0  0  0  0  0  0  0  0
  -13.3250  -15.6130   14.7440 C   0  0  0  0  0  0  0  0  0  0  0  0
  -13.5060  -16.1770   13.3840 C   0  0  2  0  0  0  0  0  0  0  0  0
  -12.6340  -17.3360   13.0160 C   0  0  0  0  0  0  0  0  0  0  0  0
  -13.2540  -18.6630   12.9530 C   0  0  0  0  0  0  0  0  0  0  0  0
  -14.6270  -18.7170   12.7420 C   0  0  0  0  0  0  0  0  0  0  0  0
  -15.2820  -19.9220   12.7250 C   0  0  0  0  0  0  0  0  0  0  0  0
  -14.6010  -21.1060   12.9130 C   0  0  0  0  0  0  0  0  0  0  0  0
  -13.2300  -21.0580   13.1210 C   0  0  0  0  0  0  0  0  0  0  0  0
  -12.3100  -22.0410   13.3030 N   0  0  0  0  0  0  0  0  0  0  0  0
  -11.1040  -21.4870   13.4310 N   0  0  0  0  0  0  0  0  0  0  0  0
  -11.2480  -20.1590   13.3330 C   0  0  0  0  0  0  0  0  0  0  0  0
  -12.5960  -19.8430   13.1360 C   0  0  0  0  0  0  0  0  0  0  0  0
  -13.2240  -15.1250   12.2950 C   0  0  0  0  0  0  0  0  0  0  0  0
  -14.7510  -10.8340   11.9730 C   0  0  0  0  0  0  0  0  0  0  0  0
  -14.8940   -9.5870   11.1470 C   0  0  0  0  0  0  0  0  0  0  0  0
  -13.9980   -9.7250    9.9370 C   0  0  0  0  0  0  0  0  0  0  0  0
  -13.4580  -11.1050    9.9350 C   0  0  0  0  0  0  0  0  0  0  0  0
  -11.1970  -11.6320   11.6190 C   0  0  0  0  0  0  0  0  0  0  0  0
  -10.0500  -11.4040   12.3910 C   0  0  0  0  0  0  0  0  0  0  0  0
   -7.5382  -11.8542   15.3219 H   0  0  0  0  0  0  0  0  0  0  0  0
   -8.1875  -12.4951   13.7745 H   0  0  0  0  0  0  0  0  0  0  0  0
   -7.1501  -11.0286   13.7745 H   0  0  0  0  0  0  0  0  0  0  0  0
  -11.5886  -10.5012   15.2700 H   0  0  0  0  0  0  0  0  0  0  0  0
  -13.5828  -10.9198   13.8508 H   0  0  0  0  0  0  0  0  0  0  0  0
  -15.8647  -13.0474   13.0347 H   0  0  0  0  0  0  0  0  0  0  0  0
  -15.8375  -14.8091   13.3243 H   0  0  0  0  0  0  0  0  0  0  0  0
  -14.4560  -12.5755   14.7911 H   0  0  0  0  0  0  0  0  0  0  0  0
  -15.1720  -14.1469   15.3972 H   0  0  0  0  0  0  0  0  0  0  0  0
  -12.3766  -15.9857   15.1582 H   0  0  0  0  0  0  0  0  0  0  0  0
  -14.1825  -15.9291   15.3563 H   0  0  0  0  0  0  0  0  0  0  0  0
  -14.5513  -16.5169   13.4266 H   0  0  0  0  0  0  0  0  0  0  0  0
  -12.2085  -17.1249   12.0238 H   0  0  0  0  0  0  0  0  0  0  0  0
  -11.9064  -17.4081   13.8378 H   0  0  0  0  0  0  0  0  0  0  0  0
  -15.1925  -17.7862   12.5875 H   0  0  0  0  0  0  0  0  0  0  0  0
  -16.3691  -19.9441   12.5585 H   0  0  0  0  0  0  0  0  0  0  0  0
  -15.1334  -22.0685   12.8984 H   0  0  0  0  0  0  0  0  0  0  0  0
  -12.5510  -23.0500   13.3310 H   0  0  0  0  0  0  0  0  0  0  0  0
  -10.4293  -19.4272   13.3977 H   0  0  0  0  0  0  0  0  0  0  0  0
  -12.2222  -14.7036   12.4651 H   0  0  0  0  0  0  0  0  0  0  0  0
  -13.2953  -15.6310   11.3209 H   0  0  0  0  0  0  0  0  0  0  0  0
  -15.7074  -11.3765   12.0054 H   0  0  0  0  0  0  0  0  0  0  0  0
  -14.4653  -10.5877   13.0063 H   0  0  0  0  0  0  0  0  0  0  0  0
  -15.9396   -9.4692   10.8262 H   0  0  0  0  0  0  0  0  0  0  0  0
  -14.6087   -8.7028   11.7359 H   0  0  0  0  0  0  0  0  0  0  0  0
  -14.5774   -9.5475    9.0189 H   0  0  0  0  0  0  0  0  0  0  0  0
  -13.1804   -8.9901    9.9756 H   0  0  0  0  0  0  0  0  0  0  0  0
  -13.9785  -11.7096    9.1777 H   0  0  0  0  0  0  0  0  0  0  0  0
  -12.3846  -11.0977    9.6945 H   0  0  0  0  0  0  0  0  0  0  0  0
  -11.0763  -11.9549   10.5744 H   0  0  0  0  0  0  0  0  0  0  0  0
   -9.0472  -11.5447   11.9613 H   0  0  0  0  0  0  0  0  0  0  0  0
  1  2  1  0
  2  3  1  0
  3  4  2  0
  4  5  1  0
  5  6  2  0
  6  7  1  0
  7  8  1  0
  8  9  2  0
  8 10  1  0
 10 11  1  0
 11 12  1  0
 12 13  1  0
 13 14  1  0
 14 15  1  0
 15 16  1  0
 16 17  1  0
 17 18  2  0
 18 19  1  0
 19 20  2  0
 20 21  1  0
 21 22  1  0
 22 23  1  0
 23 24  2  0
 24 25  1  0
 15 26  1  0
  7 27  1  0
 27 28  1  0
 28 29  1  0
 29 30  1  0
  6 31  1  0
 31 32  2  0
 32  3  1  0
 30  7  1  0
 26 10  1  0
 25 17  1  0
 25 21  2  0
  1 33  1  0
  1 34  1  0
  1 35  1  0
  4 36  1  0
  5 37  1  0
 11 38  1  0
 11 39  1  0
 12 40  1  0
 12 41  1  0
 14 42  1  0
 14 43  1  0
 15 44  1  1
 16 45  1  0
 16 46  1  0
 18 47  1  0
 19 48  1  0
 20 49  1  0
 22 50  1  0
 24 51  1  0
 26 52  1  0
 26 53  1  0
 27 54  1  0
 27 55  1  0
 28 56  1  0
 28 57  1  0
 29 58  1  0
 29 59  1  0
 30 60  1  0
 30 61  1  0
 31 62  1  0
 32 63  1  0
M  END
$$$$

     RDKit          3D

 63 67  0  0  0  0  0  0  0  0999 V2000
  -19.2760  -13.2810   15.8110 C   0  0  0  0  0  0  0  0  0  0  0  0
  -17.8970  -13.2070   16.0940 O   0  0  0  0  0  0  0  0  0  0  0  0
  -16.9650  -13.0920   15.0620 C   0  0  0  0  0  0  0  0  0  0  0  0
  -16.1640  -11.9710   14.9650 C   0  0  0  0  0  0  0  0  0  0  0  0
  -15.2430  -11.8840   13.9230 C   0  0  0  0  0  0  0  0  0  0  0  0
  -15.1060  -12.8790   12.9860 C   0  0  0  0  0  0  0  0  0  0  0  0
  -14.0980  -12.7340   11.9060 C   0  0  0  0  0  0  0  0  0  0  0  0
  -13.1920  -13.8870   11.8660 C   0  0  0  0  0  0  0  0  0  0  0  0
  -13.3460  -14.6840   10.8720 O   0  0  0  0  0  0  0  0  0  0  0  0
  -12.1720  -14.2410   12.7730 N   0  0  0  0  0  0  0  0  0  0  0  0
  -10.9020  -13.5710   12.8030 C   0  0  0  0  0  0  0  0  0  0  0  0
   -9.9640  -14.2940   11.8370 C   0  0  0  0  0  0  0  0  0  0  0  0
   -9.8390  -15.6350   12.0830 O   0  0  0  0  0  0  0  0  0  0  0  0
  -10.1090  -15.9640   13.4160 C   0  0  0  0  0  0  0  0  0  0  0  0
  -11.4900  -16.4910   13.6040 C   0  0  2  0  0  0  0  0  0  0  0  0
  -12.0060  -17.4000   12.5330 C   0  0  0  0  0  0  0  0  0  0  0  0
  -12.2010  -18.8120   12.8740 C   0  0  0  0  0  0  0  0  0  0  0  0
  -11.0730  -19.5510   13.2080 C   0  0  0  0  0  0  0  0  0  0  0  0
  -11.1740  -20.8900   13.4860 C   0  0  0  0  0  0  0  0  0  0  0  0
  -12.3910  -21.5370   13.4440 C   0  0  0  0  0  0  0  0  0  0  0  0
  -13.5210  -20.8040   13.1120 C   0  0  0  0  0  0  0  0  0  0  0  0
  -14.8310  -21.1560   13.0200 N   0  0  0  0  0  0  0  0  0  0  0  0
  -15.5470  -20.0790   12.6970 N   0  0  0  0  0  0  0  0  0  0  0  0
  -14.7050  -19.0440   12.5800 C   0  0  0  0  0  0  0  0  0  0  0  0
  -13.3970  -19.4670   12.8370 C   0  0  0  0  0  0  0  0  0  0  0  0
  -12.5140  -15.3410   13.6560 C   0  0  0  0  0  0  0  0  0  0  0  0
  -14.9150  -12.5390   10.6390 C   0  0  0  0  0  0  0  0  0  0  0  0
  -14.9050  -11.0690   10.3260 C   0  0  0  0  0  0  0  0  0  0  0  0
  -14.0110  -10.3850   11.3360 C   0  0  0  0  0  0  0  0  0  0  0  0
  -13.3480  -11.4420   12.1360 C   0  0  0  0  0  0  0  0  0  0  0  0
  -15.9160  -13.9770   13.1120 C   0  0  0  0  0  0  0  0  0  0  0  0
  -16.8540  -14.1050   14.1440 C   0  0  0  0  0  0  0  0  0  0  0  0
  -19.8426  -13.3114   16.7534 H   0  0  0  0  0  0  0  0  0  0  0  0
  -19.5789  -12.3978   15.2294 H   0  0  0  0  0  0  0  0  0  0  0  0
  -19.4826  -14.1915   15.2294 H   0  0  0  0  0  0  0  0  0  0  0  0
  -16.2520  -11.1578   15.7005 H   0  0  0  0  0  0  0  0  0  0  0  0
  -14.6057  -10.9905   13.8484 H   0  0  0  0  0  0  0  0  0  0  0  0
  -11.0250  -12.5236   12.4903 H   0  0  0  0  0  0  0  0  0  0  0  0
  -10.4865  -13.5847   13.8214 H   0  0  0  0  0  0  0  0  0  0  0  0
  -10.3516  -14.1641   10.8158 H   0  0  0  0  0  0  0  0  0  0  0  0
   -8.9660  -13.8510   11.9701 H   0  0  0  0  0  0  0  0  0  0  0  0
   -9.3911  -16.7307   13.7427 H   0  0  0  0  0  0  0  0  0  0  0  0
  -10.0174  -15.0446   14.0129 H   0  0  0  0  0  0  0  0  0  0  0  0
  -11.3943  -17.0615   14.5396 H   0  0  0  0  0  0  0  0  0  0  0  0
  -12.9786  -17.0036   12.2060 H   0  0  0  0  0  0  0  0  0  0  0  0
  -11.2157  -17.4051   11.7679 H   0  0  0  0  0  0  0  0  0  0  0  0
  -10.0906  -19.0579   13.2498 H   0  0  0  0  0  0  0  0  0  0  0  0
  -10.2687  -21.4577   13.7470 H   0  0  0  0  0  0  0  0  0  0  0  0
  -12.4642  -22.6113   13.6689 H   0  0  0  0  0  0  0  0  0  0  0  0
  -15.1740  -22.1210   13.1850 H   0  0  0  0  0  0  0  0  0  0  0  0
  -14.9982  -18.0160   12.3208 H   0  0  0  0  0  0  0  0  0  0  0  0
  -13.4986  -15.7340   13.3624 H   0  0  0  0  0  0  0  0  0  0  0  0
  -12.5199  -14.9499   14.6841 H   0  0  0  0  0  0  0  0  0  0  0  0
  -14.4648  -13.1041    9.8095 H   0  0  0  0  0  0  0  0  0  0  0  0
  -15.9441  -12.9018   10.7781 H   0  0  0  0  0  0  0  0  0  0  0  0
  -14.5150  -10.9057    9.3105 H   0  0  0  0  0  0  0  0  0  0  0  0
  -15.9246  -10.6593   10.3771 H   0  0  0  0  0  0  0  0  0  0  0  0
  -13.2549   -9.7776   10.8170 H   0  0  0  0  0  0  0  0  0  0  0  0
  -14.5997   -9.7208   11.9858 H   0  0  0  0  0  0  0  0  0  0  0  0
  -12.3020  -11.5541   11.8144 H   0  0  0  0  0  0  0  0  0  0  0  0
  -13.3560  -11.1778   13.2038 H   0  0  0  0  0  0  0  0  0  0  0  0
  -15.8261  -14.7885   12.3748 H   0  0  0  0  0  0  0  0  0  0  0  0
  -17.4891  -15.0002   14.2169 H   0  0  0  0  0  0  0  0  0  0  0  0
  1  2  1  0
  2  3  1  0
  3  4  2  0
  4  5  1  0
  5  6  2  0
  6  7  1  0
  7  8  1  0
  8  9  2  0
  8 10  1  0
 10 11  1  0
 11 12  1  0
 12 13  1  0
 13 14  1  0
 14 15  1  0
 15 16  1  0
 16 17  1  0
 17 18  2  0
 18 19  1  0
 19 20  2  0
 20 21  1  0
 21 22  1  0
 22 23  1  0
 23 24  2  0
 24 25  1  0
 15 26  1  0
  7 27  1  0
 27 28  1  0
 28 29  1  0
 29 30  1  0
  6 31  1  0
 31 32  2  0
 32  3  1  0
 30  7  1  0
 26 10  1  0
 25 17  1  0
 25 21  2  0
  1 33  1  0
  1 34  1  0
  1 35  1  0
  4 36  1  0
  5 37  1  0
 11 38  1  0
 11 39  1  0
 12 40  1  0
 12 41  1  0
 14 42  1  0
 14 43  1  0
 15 44  1  1
 16 45  1  0
 16 46  1  0
 18 47  1  0
 19 48  1  0
 20 49  1  0
 22 50  1  0
 24 51  1  0
 26 52  1  0
 26 53  1  0
 27 54  1  0
 27 55  1  0
 28 56  1  0
 28 57  1  0
 29 58  1  0
 29 59  1  0
 30 60  1  0
 30 61  1  0
 31 62  1  0
 32 63  1  0
M  END
$$$$

     RDKit          3D

 63 67  0  0  0  0  0  0  0  0999 V2000
  -14.0870   -9.1260    9.7380 C   0  0  0  0  0  0  0  0  0  0  0  0
  -14.0750  -10.5360    9.7430 O   0  0  0  0  0  0  0  0  0  0  0  0
  -14.4340  -11.2450   10.8900 C   0  0  0  0  0  0  0  0  0  0  0  0
  -14.7750  -12.5810   10.8080 C   0  0  0  0  0  0  0  0  0  0  0  0
  -15.1300  -13.2620   11.9700 C   0  0  0  0  0  0  0  0  0  0  0  0
  -15.1530  -12.6470   13.1980 C   0  0  0  0  0  0  0  0  0  0  0  0
  -15.5280  -13.4300   14.4020 C   0  0  0  0  0  0  0  0  0  0  0  0
  -14.3770  -14.1690   14.9340 C   0  0  0  0  0  0  0  0  0  0  0  0
  -14.5160  -14.6390   16.1200 O   0  0  0  0  0  0  0  0  0  0  0  0
  -13.1360  -14.4340   14.3190 N   0  0  0  0  0  0  0  0  0  0  0  0
  -11.9610  -13.6520   14.5880 C   0  0  0  0  0  0  0  0  0  0  0  0
  -11.3690  -13.2160   13.2490 C   0  0  0  0  0  0  0  0  0  0  0  0
  -10.9990  -14.2570   12.4390 O   0  0  0  0  0  0  0  0  0  0  0  0
  -10.6730  -15.4110   13.1620 C   0  0  0  0  0  0  0  0  0  0  0  0
  -11.8270  -16.3270   13.3600 C   0  0  2  0  0  0  0  0  0  0  0  0
  -12.0300  -17.3660   12.3020 C   0  0  0  0  0  0  0  0  0  0  0  0
  -12.2050  -18.7560   12.7370 C   0  0  0  0  0  0  0  0  0  0  0  0
  -11.0650  -19.4550   13.1160 C   0  0  0  0  0  0  0  0  0  0  0  0
  -11.1470  -20.7730   13.4830 C   0  0  0  0  0  0  0  0  0  0  0  0
  -12.3550  -21.4390   13.4870 C   0  0  0  0  0  0  0  0  0  0  0  0
  -13.4960  -20.7450   13.1110 C   0  0  0  0  0  0  0  0  0  0  0  0
  -14.8000  -21.1210   13.0470 N   0  0  0  0  0  0  0  0  0  0  0  0
  -15.5320  -20.0780   12.6550 N   0  0  0  0  0  0  0  0  0  0  0  0
  -14.7050  -19.0410   12.4670 C   0  0  0  0  0  0  0  0  0  0  0  0
  -13.3910  -19.4280   12.7470 C   0  0  0  0  0  0  0  0  0  0  0  0
  -13.1570  -15.5490   13.3910 C   0  0  0  0  0  0  0  0  0  0  0  0
  -16.1100  -12.4070   15.3630 C   0  0  0  0  0  0  0  0  0  0  0  0
  -17.6060  -12.5270   15.2860 C   0  0  0  0  0  0  0  0  0  0  0  0
  -17.9340  -13.6770   14.3610 C   0  0  0  0  0  0  0  0  0  0  0  0
  -16.6610  -14.3580   14.0240 C   0  0  0  0  0  0  0  0  0  0  0  0
  -14.8080  -11.3220   13.2430 C   0  0  0  0  0  0  0  0  0  0  0  0
  -14.4450  -10.6000   12.1000 C   0  0  0  0  0  0  0  0  0  0  0  0
  -14.0902   -8.7557   10.7738 H   0  0  0  0  0  0  0  0  0  0  0  0
  -13.1920   -8.7535    9.2182 H   0  0  0  0  0  0  0  0  0  0  0  0
  -14.9882   -8.7688    9.2182 H   0  0  0  0  0  0  0  0  0  0  0  0
  -14.7663  -13.1001    9.8382 H   0  0  0  0  0  0  0  0  0  0  0  0
  -15.4005  -14.3261   11.9021 H   0  0  0  0  0  0  0  0  0  0  0  0
  -12.2296  -12.7670   15.1836 H   0  0  0  0  0  0  0  0  0  0  0  0
  -11.2284  -14.2448   15.1554 H   0  0  0  0  0  0  0  0  0  0  0  0
  -12.1211  -12.6144   12.7176 H   0  0  0  0  0  0  0  0  0  0  0  0
  -10.4549  -12.6473   13.4747 H   0  0  0  0  0  0  0  0  0  0  0  0
   -9.8862  -15.9535   12.6174 H   0  0  0  0  0  0  0  0  0  0  0  0
  -10.3395  -15.0872   14.1590 H   0  0  0  0  0  0  0  0  0  0  0  0
  -11.5697  -16.8208   14.3087 H   0  0  0  0  0  0  0  0  0  0  0  0
  -12.9280  -17.0842   11.7327 H   0  0  0  0  0  0  0  0  0  0  0  0
  -11.0898  -17.3693   11.7310 H   0  0  0  0  0  0  0  0  0  0  0  0
  -10.0896  -18.9466   13.1214 H   0  0  0  0  0  0  0  0  0  0  0  0
  -10.2334  -21.3091   13.7796 H   0  0  0  0  0  0  0  0  0  0  0  0
  -12.4124  -22.4972   13.7819 H   0  0  0  0  0  0  0  0  0  0  0  0
  -15.1300  -22.0770   13.2770 H   0  0  0  0  0  0  0  0  0  0  0  0
  -15.0133  -18.0365   12.1414 H   0  0  0  0  0  0  0  0  0  0  0  0
  -13.3612  -15.1621   12.3817 H   0  0  0  0  0  0  0  0  0  0  0  0
  -13.9394  -16.2449   13.7280 H   0  0  0  0  0  0  0  0  0  0  0  0
  -15.7674  -12.6145   16.3875 H   0  0  0  0  0  0  0  0  0  0  0  0
  -15.7852  -11.3906   15.0957 H   0  0  0  0  0  0  0  0  0  0  0  0
  -18.0170  -12.7240   16.2872 H   0  0  0  0  0  0  0  0  0  0  0  0
  -18.0458  -11.5930   14.9063 H   0  0  0  0  0  0  0  0  0  0  0  0
  -18.6141  -14.3804   14.8636 H   0  0  0  0  0  0  0  0  0  0  0  0
  -18.4293  -13.3107   13.4497 H   0  0  0  0  0  0  0  0  0  0  0  0
  -16.5787  -15.2987   14.5882 H   0  0  0  0  0  0  0  0  0  0  0  0
  -16.6233  -14.5941   12.9503 H   0  0  0  0  0  0  0  0  0  0  0  0
  -14.8166  -10.8058   14.2143 H   0  0  0  0  0  0  0  0  0  0  0  0
  -14.1739   -9.5363   12.1711 H   0  0  0  0  0  0  0  0  0  0  0  0
  1  2  1  0
  2  3  1  0
  3  4  2  0
  4  5  1  0
  5  6  2  0
  6  7  1  0
  7  8  1  0
  8  9  2  0
  8 10  1  0
 10 11  1  0
 11 12  1  0
 12 13  1  0
 13 14  1  0
 14 15  1  0
 15 16  1  0
 16 17  1  0
 17 18  2  0
 18 19  1  0
 19 20  2  0
 20 21  1  0
 21 22  1  0
 22 23  1  0
 23 24  2  0
 24 25  1  0
 15 26  1  0
  7 27  1  0
 27 28  1  0
 28 29  1  0
 29 30  1  0
  6 31  1  0
 31 32  2  0
 32  3  1  0
 30  7  1  0
 26 10  1  0
 25 17  1  0
 25 21  2  0
  1 33  1  0
  1 34  1  0
  1 35  1  0
  4 36  1  0
  5 37  1  0
 11 38  1  0
 11 39  1  0
 12 40  1  0
 12 41  1  0
 14 42  1  0
 14 43  1  0
 15 44  1  1
 16 45  1  0
 16 46  1  0
 18 47  1  0
 19 48  1  0
 20 49  1  0
 22 50  1  0
 24 51  1  0
 26 52  1  0
 26 53  1  0
 27 54  1  0
 27 55  1  0
 28 56  1  0
 28 57  1  0
 29 58  1  0
 29 59  1  0
 30 60  1  0
 30 61  1  0
 31 62  1  0
 32 63  1  0
M  END
$$$$

     RDKit          3D

 63 67  0  0  0  0  0  0  0  0999 V2000
   -8.8620  -10.9310   15.6580 C   0  0  0  0  0  0  0  0  0  0  0  0
   -8.9310  -10.8240   14.2540 O   0  0  0  0  0  0  0  0  0  0  0  0
  -10.1360  -11.0410   13.5840 C   0  0  0  0  0  0  0  0  0  0  0  0
  -11.3400  -10.8480   14.2310 C   0  0  0  0  0  0  0  0  0  0  0  0
  -12.5270  -11.0720   13.5370 C   0  0  0  0  0  0  0  0  0  0  0  0
  -12.5380  -11.4810   12.2260 C   0  0  0  0  0  0  0  0  0  0  0  0
  -13.8360  -11.6910   11.5360 C   0  0  0  0  0  0  0  0  0  0  0  0
  -14.3590  -13.0380   11.7890 C   0  0  0  0  0  0  0  0  0  0  0  0
  -14.2130  -13.8820   10.8330 O   0  0  0  0  0  0  0  0  0  0  0  0
  -15.0030  -13.5350   12.9410 N   0  0  0  0  0  0  0  0  0  0  0  0
  -15.5260  -12.6710   13.9640 C   0  0  0  0  0  0  0  0  0  0  0  0
  -16.9750  -13.0750   14.2270 C   0  0  0  0  0  0  0  0  0  0  0  0
  -17.1280  -14.3830   14.6030 O   0  0  0  0  0  0  0  0  0  0  0  0
  -16.0300  -14.8670   15.3230 C   0  0  0  0  0  0  0  0  0  0  0  0
  -15.0260  -15.5200   14.4500 C   0  0  2  0  0  0  0  0  0  0  0  0
  -13.5940  -15.3620   14.8560 C   0  0  0  0  0  0  0  0  0  0  0  0
  -12.6170  -16.2930   14.2840 C   0  0  0  0  0  0  0  0  0  0  0  0
  -12.9500  -17.6430   14.2740 C   0  0  0  0  0  0  0  0  0  0  0  0
  -12.0620  -18.5760   13.8040 C   0  0  0  0  0  0  0  0  0  0  0  0
  -10.8220  -18.2040   13.3280 C   0  0  0  0  0  0  0  0  0  0  0  0
  -10.4860  -16.8580   13.3340 C   0  0  0  0  0  0  0  0  0  0  0  0
   -9.3720  -16.2050   12.9100 N   0  0  0  0  0  0  0  0  0  0  0  0
   -9.5400  -14.8960   13.1000 N   0  0  0  0  0  0  0  0  0  0  0  0
  -10.7500  -14.7100   13.6420 C   0  0  0  0  0  0  0  0  0  0  0  0
  -11.3880  -15.9420   13.8100 C   0  0  0  0  0  0  0  0  0  0  0  0
  -15.0760  -14.9820   13.0070 C   0  0  0  0  0  0  0  0  0  0  0  0
  -14.7290  -10.5710   12.0440 C   0  0  0  0  0  0  0  0  0  0  0  0
  -14.7660   -9.5140   10.9760 C   0  0  0  0  0  0  0  0  0  0  0  0
  -13.9830  -10.0260    9.7880 C   0  0  0  0  0  0  0  0  0  0  0  0
  -13.6290  -11.4400   10.0600 C   0  0  0  0  0  0  0  0  0  0  0  0
  -11.3260  -11.6610   11.6130 C   0  0  0  0  0  0  0  0  0  0  0  0
  -10.1100  -11.4470   12.2740 C   0  0  0  0  0  0  0  0  0  0  0  0
   -9.4038  -10.0908   16.1168 H   0  0  0  0  0  0  0  0  0  0  0  0
   -9.3190  -11.8796   15.9763 H   0  0  0  0  0  0  0  0  0  0  0  0
   -7.8094  -10.9061   15.9763 H   0  0  0  0  0  0  0  0  0  0  0  0
  -11.3619  -10.5215   15.2812 H   0  0  0  0  0  0  0  0  0  0  0  0
  -13.4849  -10.9165   14.0550 H   0  0  0  0  0  0  0  0  0  0  0  0
  -14.9345  -12.7819   14.8848 H   0  0  0  0  0  0  0  0  0  0  0  0
  -15.4746  -11.6209   13.6406 H   0  0  0  0  0  0  0  0  0  0  0  0
  -17.3725  -12.4356   15.0289 H   0  0  0  0  0  0  0  0  0  0  0  0
  -17.5179  -12.9504   13.2784 H   0  0  0  0  0  0  0  0  0  0  0  0
  -15.5507  -14.0254   15.8446 H   0  0  0  0  0  0  0  0  0  0  0  0
  -16.4001  -15.6222   16.0320 H   0  0  0  0  0  0  0  0  0  0  0  0
  -15.3174  -16.5769   14.5400 H   0  0  0  0  0  0  0  0  0  0  0  0
  -13.2829  -14.3452   14.5743 H   0  0  0  0  0  0  0  0  0  0  0  0
  -13.5854  -15.5779   15.9346 H   0  0  0  0  0  0  0  0  0  0  0  0
  -13.9338  -17.9650   14.6462 H   0  0  0  0  0  0  0  0  0  0  0  0
  -12.3433  -19.6394   13.8066 H   0  0  0  0  0  0  0  0  0  0  0  0
  -10.1150  -18.9581   12.9519 H   0  0  0  0  0  0  0  0  0  0  0  0
   -8.5460  -16.6870   12.5080 H   0  0  0  0  0  0  0  0  0  0  0  0
  -11.1778  -13.7339   13.9143 H   0  0  0  0  0  0  0  0  0  0  0  0
  -14.2280  -15.4021   12.4463 H   0  0  0  0  0  0  0  0  0  0  0  0
  -16.0419  -15.2837   12.5757 H   0  0  0  0  0  0  0  0  0  0  0  0
  -15.7433  -10.9532   12.2315 H   0  0  0  0  0  0  0  0  0  0  0  0
  -14.3414  -10.1597   12.9877 H   0  0  0  0  0  0  0  0  0  0  0  0
  -15.8072   -9.3174   10.6807 H   0  0  0  0  0  0  0  0  0  0  0  0
  -14.3272   -8.5768   11.3490 H   0  0  0  0  0  0  0  0  0  0  0  0
  -14.5974   -9.9616    8.8779 H   0  0  0  0  0  0  0  0  0  0  0  0
  -13.0757   -9.4233    9.6345 H   0  0  0  0  0  0  0  0  0  0  0  0
  -14.2761  -12.1077    9.4723 H   0  0  0  0  0  0  0  0  0  0  0  0
  -12.5836  -11.6358    9.7793 H   0  0  0  0  0  0  0  0  0  0  0  0
  -11.3073  -11.9858   10.5622 H   0  0  0  0  0  0  0  0  0  0  0  0
   -9.1535  -11.6014   11.7532 H   0  0  0  0  0  0  0  0  0  0  0  0
  1  2  1  0
  2  3  1  0
  3  4  2  0
  4  5  1  0
  5  6  2  0
  6  7  1  0
  7  8  1  0
  8  9  2  0
  8 10  1  0
 10 11  1  0
 11 12  1  0
 12 13  1  0
 13 14  1  0
 14 15  1  0
 15 16  1  0
 16 17  1  0
 17 18  2  0
 18 19  1  0
 19 20  2  0
 20 21  1  0
 21 22  1  0
 22 23  1  0
 23 24  2  0
 24 25  1  0
 15 26  1  0
  7 27  1  0
 27 28  1  0
 28 29  1  0
 29 30  1  0
  6 31  1  0
 31 32  2  0
 32  3  1  0
 30  7  1  0
 26 10  1  0
 25 17  1  0
 25 21  2  0
  1 33  1  0
  1 34  1  0
  1 35  1  0
  4 36  1  0
  5 37  1  0
 11 38  1  0
 11 39  1  0
 12 40  1  0
 12 41  1  0
 14 42  1  0
 14 43  1  0
 15 44  1  6
 16 45  1  0
 16 46  1  0
 18 47  1  0
 19 48  1  0
 20 49  1  0
 22 50  1  0
 24 51  1  0
 26 52  1  0
 26 53  1  0
 27 54  1  0
 27 55  1  0
 28 56  1  0
 28 57  1  0
 29 58  1  0
 29 59  1  0
 30 60  1  0
 30 61  1  0
 31 62  1  0
 32 63  1  0
M  END
$$$$

     RDKit          3D

 63 67  0  0  0  0  0  0  0  0999 V2000
  -12.9230  -21.8690   13.4760 C   0  0  0  0  0  0  0  0  0  0  0  0
  -12.0160  -20.7950   13.3710 O   0  0  0  0  0  0  0  0  0  0  0  0
  -12.4760  -19.4780   13.3310 C   0  0  0  0  0  0  0  0  0  0  0  0
  -11.7000  -18.4510   13.8310 C   0  0  0  0  0  0  0  0  0  0  0  0
  -12.1860  -17.1460   13.7780 C   0  0  0  0  0  0  0  0  0  0  0  0
  -13.4160  -16.8480   13.2430 C   0  0  0  0  0  0  0  0  0  0  0  0
  -13.8730  -15.4360   13.2040 C   0  0  0  0  0  0  0  0  0  0  0  0
  -13.5970  -14.8250   11.8990 C   0  0  0  0  0  0  0  0  0  0  0  0
  -13.2910  -15.6380   10.9540 O   0  0  0  0  0  0  0  0  0  0  0  0
  -13.6230  -13.4610   11.5380 N   0  0  0  0  0  0  0  0  0  0  0  0
  -14.8270  -12.7970   11.1210 C   0  0  0  0  0  0  0  0  0  0  0  0
  -14.5840  -12.2100    9.7320 C   0  0  0  0  0  0  0  0  0  0  0  0
  -13.3980  -11.5360    9.6130 O   0  0  0  0  0  0  0  0  0  0  0  0
  -13.1730  -10.6510   10.6730 C   0  0  0  0  0  0  0  0  0  0  0  0
  -12.4520  -11.2740   11.7900 C   0  0  2  0  0  0  0  0  0  0  0  0
  -11.0440  -10.8140   12.0010 C   0  0  0  0  0  0  0  0  0  0  0  0
  -10.3560  -11.2610   13.2150 C   0  0  0  0  0  0  0  0  0  0  0  0
  -10.9810  -11.0150   14.4320 C   0  0  0  0  0  0  0  0  0  0  0  0
  -10.3700  -11.3580   15.6110 C   0  0  0  0  0  0  0  0  0  0  0  0
   -9.1260  -11.9550   15.6220 C   0  0  0  0  0  0  0  0  0  0  0  0
   -8.4990  -12.2040   14.4100 C   0  0  0  0  0  0  0  0  0  0  0  0
   -7.3100  -12.7930   14.1140 N   0  0  0  0  0  0  0  0  0  0  0  0
   -7.1640  -12.8290   12.7890 N   0  0  0  0  0  0  0  0  0  0  0  0
   -8.2480  -12.2670   12.2390 C   0  0  0  0  0  0  0  0  0  0  0  0
   -9.1270  -11.8520   13.2440 C   0  0  0  0  0  0  0  0  0  0  0  0
  -12.3340  -12.8000   11.6140 C   0  0  0  0  0  0  0  0  0  0  0  0
  -15.3480  -15.4970   13.5630 C   0  0  0  0  0  0  0  0  0  0  0  0
  -15.4710  -15.0990   15.0070 C   0  0  0  0  0  0  0  0  0  0  0  0
  -14.0970  -14.7030   15.4980 C   0  0  0  0  0  0  0  0  0  0  0  0
  -13.1890  -14.6900   14.3260 C   0  0  0  0  0  0  0  0  0  0  0  0
  -14.1590  -17.8900   12.7550 C   0  0  0  0  0  0  0  0  0  0  0  0
  -13.7080  -19.2160   12.7890 C   0  0  0  0  0  0  0  0  0  0  0  0
  -13.1091  -22.0893   14.5375 H   0  0  0  0  0  0  0  0  0  0  0  0
  -13.8700  -21.5984   12.9862 H   0  0  0  0  0  0  0  0  0  0  0  0
  -12.4977  -22.7574   12.9862 H   0  0  0  0  0  0  0  0  0  0  0  0
  -10.7113  -18.6602   14.2654 H   0  0  0  0  0  0  0  0  0  0  0  0
  -11.5660  -16.3295   14.1767 H   0  0  0  0  0  0  0  0  0  0  0  0
  -15.6568  -13.5180   11.0818 H   0  0  0  0  0  0  0  0  0  0  0  0
  -15.0906  -12.0004   11.8323 H   0  0  0  0  0  0  0  0  0  0  0  0
  -14.5889  -13.0334    9.0026 H   0  0  0  0  0  0  0  0  0  0  0  0
  -15.3857  -11.4791    9.5501 H   0  0  0  0  0  0  0  0  0  0  0  0
  -12.5805   -9.8016   10.3022 H   0  0  0  0  0  0  0  0  0  0  0  0
  -14.1549  -10.3293   11.0504 H   0  0  0  0  0  0  0  0  0  0  0  0
  -13.0684  -10.9711   12.6492 H   0  0  0  0  0  0  0  0  0  0  0  0
  -10.4525  -11.1618   11.1413 H   0  0  0  0  0  0  0  0  0  0  0  0
  -11.1219   -9.7223   12.1116 H   0  0  0  0  0  0  0  0  0  0  0  0
  -11.9737  -10.5414   14.4496 H   0  0  0  0  0  0  0  0  0  0  0  0
  -10.8802  -11.1538   16.5639 H   0  0  0  0  0  0  0  0  0  0  0  0
   -8.6420  -12.2276   16.5714 H   0  0  0  0  0  0  0  0  0  0  0  0
   -6.6530  -13.1450   14.8350 H   0  0  0  0  0  0  0  0  0  0  0  0
   -8.4208  -12.1495   11.1590 H   0  0  0  0  0  0  0  0  0  0  0  0
  -11.7795  -13.0044   10.6862 H   0  0  0  0  0  0  0  0  0  0  0  0
  -11.8123  -13.1948   12.4983 H   0  0  0  0  0  0  0  0  0  0  0  0
  -15.9189  -14.8013   12.9304 H   0  0  0  0  0  0  0  0  0  0  0  0
  -15.7475  -16.5091   13.4016 H   0  0  0  0  0  0  0  0  0  0  0  0
  -16.1617  -14.2483   15.1028 H   0  0  0  0  0  0  0  0  0  0  0  0
  -15.8648  -15.9355   15.6030 H   0  0  0  0  0  0  0  0  0  0  0  0
  -14.1354  -13.7027   15.9539 H   0  0  0  0  0  0  0  0  0  0  0  0
  -13.7382  -15.4137   16.2570 H   0  0  0  0  0  0  0  0  0  0  0  0
  -12.9893  -13.6528   14.0187 H   0  0  0  0  0  0  0  0  0  0  0  0
  -12.2305  -15.1678   14.5770 H   0  0  0  0  0  0  0  0  0  0  0  0
  -15.1468  -17.6778   12.3201 H   0  0  0  0  0  0  0  0  0  0  0  0
  -14.3297  -20.0305   12.3890 H   0  0  0  0  0  0  0  0  0  0  0  0
  1  2  1  0
  2  3  1  0
  3  4  2  0
  4  5  1  0
  5  6  2  0
  6  7  1  0
  7  8  1  0
  8  9  2  0
  8 10  1  0
 10 11  1  0
 11 12  1  0
 12 13  1  0
 13 14  1  0
 14 15  1  0
 15 16  1  0
 16 17  1  0
 17 18  2  0
 18 19  1  0
 19 20  2  0
 20 21  1  0
 21 22  1  0
 22 23  1  0
 23 24  2  0
 24 25  1  0
 15 26  1  0
  7 27  1  0
 27 28  1  0
 28 29  1  0
 29 30  1  0
  6 31  1  0
 31 32  2  0
 32  3  1  0
 30  7  1  0
 26 10  1  0
 25 17  1  0
 25 21  2  0
  1 33  1  0
  1 34  1  0
  1 35  1  0
  4 36  1  0
  5 37  1  0
 11 38  1  0
 11 39  1  0
 12 40  1  0
 12 41  1  0
 14 42  1  0
 14 43  1  0
 15 44  1  1
 16 45  1  0
 16 46  1  0
 18 47  1  0
 19 48  1  0
 20 49  1  0
 22 50  1  0
 24 51  1  0
 26 52  1  0
 26 53  1  0
 27 54  1  0
 27 55  1  0
 28 56  1  0
 28 57  1  0
 29 58  1  0
 29 59  1  0
 30 60  1  0
 30 61  1  0
 31 62  1  0
 32 63  1  0
M  END
$$$$

     RDKit          3D

 63 67  0  0  0  0  0  0  0  0999 V2000
  -17.9910  -13.5680   15.1230 C   0  0  0  0  0  0  0  0  0  0  0  0
  -16.7230  -13.6680   15.7310 O   0  0  0  0  0  0  0  0  0  0  0  0
  -15.6860  -14.3580   15.1020 C   0  0  0  0  0  0  0  0  0  0  0  0
  -14.4900  -14.5720   15.7570 C   0  0  0  0  0  0  0  0  0  0  0  0
  -13.4730  -15.2630   15.1030 C   0  0  0  0  0  0  0  0  0  0  0  0
  -13.6210  -15.7400   13.8230 C   0  0  0  0  0  0  0  0  0  0  0  0
  -12.5040  -16.4800   13.1850 C   0  0  0  0  0  0  0  0  0  0  0  0
  -11.6080  -15.5700   12.4630 C   0  0  0  0  0  0  0  0  0  0  0  0
  -11.9120  -15.3410   11.2380 O   0  0  0  0  0  0  0  0  0  0  0  0
  -10.4540  -14.9090   12.9340 N   0  0  0  0  0  0  0  0  0  0  0  0
   -9.1950  -15.5820   13.0990 C   0  0  0  0  0  0  0  0  0  0  0  0
   -8.1120  -14.7210   12.4510 C   0  0  0  0  0  0  0  0  0  0  0  0
   -8.0560  -13.4410   12.9350 O   0  0  0  0  0  0  0  0  0  0  0  0
   -8.6650  -12.5150   12.0800 C   0  0  0  0  0  0  0  0  0  0  0  0
  -10.1520  -12.5670   12.1330 C   0  0  2  0  0  0  0  0  0  0  0  0
  -10.8370  -11.2660   12.4080 C   0  0  0  0  0  0  0  0  0  0  0  0
  -12.3010  -11.2700   12.4830 C   0  0  0  0  0  0  0  0  0  0  0  0
  -12.8790  -11.0320   13.7240 C   0  0  0  0  0  0  0  0  0  0  0  0
  -14.2400  -11.0740   13.8780 C   0  0  0  0  0  0  0  0  0  0  0  0
  -15.0710  -11.3490   12.8130 C   0  0  0  0  0  0  0  0  0  0  0  0
  -14.5000  -11.5860   11.5710 C   0  0  0  0  0  0  0  0  0  0  0  0
  -15.0540  -11.8500   10.3580 N   0  0  0  0  0  0  0  0  0  0  0  0
  -14.0810  -11.9700    9.4550 N   0  0  0  0  0  0  0  0  0  0  0  0
  -12.9120  -11.7880   10.0810 C   0  0  0  0  0  0  0  0  0  0  0  0
  -13.1360  -11.5410   11.4390 C   0  0  0  0  0  0  0  0  0  0  0  0
  -10.6550  -13.5070   13.2460 C   0  0  0  0  0  0  0  0  0  0  0  0
  -11.8400  -17.2360   14.3230 C   0  0  0  0  0  0  0  0  0  0  0  0
  -12.3210  -18.6580   14.2520 C   0  0  0  0  0  0  0  0  0  0  0  0
  -13.1920  -18.7930   13.0240 C   0  0  0  0  0  0  0  0  0  0  0  0
  -13.0980  -17.5230   12.2650 C   0  0  0  0  0  0  0  0  0  0  0  0
  -14.8210  -15.5110   13.2030 C   0  0  0  0  0  0  0  0  0  0  0  0
  -15.8690  -14.8210   13.8240 C   0  0  0  0  0  0  0  0  0  0  0  0
  -18.7667  -13.5068   15.9006 H   0  0  0  0  0  0  0  0  0  0  0  0
  -18.0272  -12.6642   14.4970 H   0  0  0  0  0  0  0  0  0  0  0  0
  -18.1685  -14.4549   14.4970 H   0  0  0  0  0  0  0  0  0  0  0  0
  -14.3421  -14.2016   16.7821 H   0  0  0  0  0  0  0  0  0  0  0  0
  -12.5212  -15.4323   15.6278 H   0  0  0  0  0  0  0  0  0  0  0  0
   -8.9783  -15.7115   14.1696 H   0  0  0  0  0  0  0  0  0  0  0  0
   -9.2274  -16.5751   12.6271 H   0  0  0  0  0  0  0  0  0  0  0  0
   -7.1376  -15.2004   12.6264 H   0  0  0  0  0  0  0  0  0  0  0  0
   -8.3605  -14.6471   11.3820 H   0  0  0  0  0  0  0  0  0  0  0  0
   -8.3388  -11.5046   12.3676 H   0  0  0  0  0  0  0  0  0  0  0  0
   -8.3627  -12.7663   11.0527 H   0  0  0  0  0  0  0  0  0  0  0  0
  -10.4020  -12.9106   11.1184 H   0  0  0  0  0  0  0  0  0  0  0  0
  -10.4596  -10.8931   13.3716 H   0  0  0  0  0  0  0  0  0  0  0  0
  -10.6048  -10.6391   11.5345 H   0  0  0  0  0  0  0  0  0  0  0  0
  -12.2387  -10.8080   14.5900 H   0  0  0  0  0  0  0  0  0  0  0  0
  -14.6774  -10.8848   14.8694 H   0  0  0  0  0  0  0  0  0  0  0  0
  -16.1626  -11.3798   12.9450 H   0  0  0  0  0  0  0  0  0  0  0  0
  -16.0770  -11.9340   10.2050 H   0  0  0  0  0  0  0  0  0  0  0  0
  -11.9237  -11.8269    9.5996 H   0  0  0  0  0  0  0  0  0  0  0  0
  -10.1136  -13.2729   14.1745 H   0  0  0  0  0  0  0  0  0  0  0  0
  -11.7378  -13.3441   13.3514 H   0  0  0  0  0  0  0  0  0  0  0  0
  -10.7463  -17.2020   14.2105 H   0  0  0  0  0  0  0  0  0  0  0  0
  -12.0960  -16.7851   15.2932 H   0  0  0  0  0  0  0  0  0  0  0  0
  -11.4612  -19.3401   14.1772 H   0  0  0  0  0  0  0  0  0  0  0  0
  -12.8915  -18.9152   15.1566 H   0  0  0  0  0  0  0  0  0  0  0  0
  -12.8371  -19.6284   12.4026 H   0  0  0  0  0  0  0  0  0  0  0  0
  -14.2346  -18.9951   13.3106 H   0  0  0  0  0  0  0  0  0  0  0  0
  -12.4511  -17.6591   11.3858 H   0  0  0  0  0  0  0  0  0  0  0  0
  -14.0927  -17.2078   11.9169 H   0  0  0  0  0  0  0  0  0  0  0  0
  -14.9666  -15.8834   12.1783 H   0  0  0  0  0  0  0  0  0  0  0  0
  -16.8202  -14.6535   13.2975 H   0  0  0  0  0  0  0  0  0  0  0  0
  1  2  1  0
  2  3  1  0
  3  4  2  0
  4  5  1  0
  5  6  2  0
  6  7  1  0
  7  8  1  0
  8  9  2  0
  8 10  1  0
 10 11  1  0
 11 12  1  0
 12 13  1  0
 13 14  1  0
 14 15  1  0
 15 16  1  0
 16 17  1  0
 17 18  2  0
 18 19  1  0
 19 20  2  0
 20 21  1  0
 21 22  1  0
 22 23  1  0
 23 24  2  0
 24 25  1  0
 15 26  1  0
  7 27  1  0
 27 28  1  0
 28 29  1  0
 29 30  1  0
  6 31  1  0
 31 32  2  0
 32  3  1  0
 30  7  1  0
 26 10  1  0
 25 17  1  0
 25 21  2  0
  1 33  1  0
  1 34  1  0
  1 35  1  0
  4 36  1  0
  5 37  1  0
 11 38  1  0
 11 39  1  0
 12 40  1  0
 12 41  1  0
 14 42  1  0
 14 43  1  0
 15 44  1  6
 16 45  1  0
 16 46  1  0
 18 47  1  0
 19 48  1  0
 20 49  1  0
 22 50  1  0
 24 51  1  0
 26 52  1  0
 26 53  1  0
 27 54  1  0
 27 55  1  0
 28 56  1  0
 28 57  1  0
 29 58  1  0
 29 59  1  0
 30 60  1  0
 30 61  1  0
 31 62  1  0
 32 63  1  0
M  END
$$$$

     RDKit          3D

 63 67  0  0  0  0  0  0  0  0999 V2000
  -18.6160  -12.7440   15.9610 C   0  0  0  0  0  0  0  0  0  0  0  0
  -17.8400  -13.6620   15.2240 O   0  0  0  0  0  0  0  0  0  0  0  0
  -16.7780  -13.2210   14.4340 C   0  0  0  0  0  0  0  0  0  0  0  0
  -16.2110  -14.0590   13.4940 C   0  0  0  0  0  0  0  0  0  0  0  0
  -15.1520  -13.5900   12.7200 C   0  0  0  0  0  0  0  0  0  0  0  0
  -14.6500  -12.3190   12.8630 C   0  0  0  0  0  0  0  0  0  0  0  0
  -13.5270  -11.8750   12.0000 C   0  0  0  0  0  0  0  0  0  0  0  0
  -12.2520  -11.9170   12.7240 C   0  0  0  0  0  0  0  0  0  0  0  0
  -11.9150  -10.8340   13.3250 O   0  0  0  0  0  0  0  0  0  0  0  0
  -11.3430  -12.9870   12.8520 N   0  0  0  0  0  0  0  0  0  0  0  0
  -10.1530  -13.0860   12.0520 C   0  0  0  0  0  0  0  0  0  0  0  0
   -8.9600  -13.2220   12.9960 C   0  0  0  0  0  0  0  0  0  0  0  0
   -9.1010  -14.2140   13.9310 O   0  0  0  0  0  0  0  0  0  0  0  0
   -9.6860  -15.3710   13.4030 C   0  0  0  0  0  0  0  0  0  0  0  0
  -11.1670  -15.3790   13.5320 C   0  0  2  0  0  0  0  0  0  0  0  0
  -11.9390  -15.8250   12.3300 C   0  0  0  0  0  0  0  0  0  0  0  0
  -12.8160  -16.9910   12.4780 C   0  0  0  0  0  0  0  0  0  0  0  0
  -14.1870  -16.7670   12.4470 C   0  0  0  0  0  0  0  0  0  0  0  0
  -15.0660  -17.8030   12.6320 C   0  0  0  0  0  0  0  0  0  0  0  0
  -14.6170  -19.0890   12.8520 C   0  0  0  0  0  0  0  0  0  0  0  0
  -13.2490  -19.3180   12.8820 C   0  0  0  0  0  0  0  0  0  0  0  0
  -12.5280  -20.4580   13.0460 N   0  0  0  0  0  0  0  0  0  0  0  0
  -11.2300  -20.1650   12.9660 N   0  0  0  0  0  0  0  0  0  0  0  0
  -11.1180  -18.8470   12.7540 C   0  0  0  0  0  0  0  0  0  0  0  0
  -12.3880  -18.2670   12.6960 C   0  0  0  0  0  0  0  0  0  0  0  0
  -11.7200  -13.9760   13.8440 C   0  0  0  0  0  0  0  0  0  0  0  0
  -13.5860  -12.7890   10.7880 C   0  0  0  0  0  0  0  0  0  0  0  0
  -14.2430  -12.0170    9.6800 C   0  0  0  0  0  0  0  0  0  0  0  0
  -14.4950  -10.6120   10.1790 C   0  0  0  0  0  0  0  0  0  0  0  0
  -13.8410  -10.4820   11.5020 C   0  0  0  0  0  0  0  0  0  0  0  0
  -15.2360  -11.5150   13.8040 C   0  0  0  0  0  0  0  0  0  0  0  0
  -16.3030  -11.9460   14.6030 C   0  0  0  0  0  0  0  0  0  0  0  0
  -18.4678  -12.9193   17.0368 H   0  0  0  0  0  0  0  0  0  0  0  0
  -18.3069  -11.7185   15.7106 H   0  0  0  0  0  0  0  0  0  0  0  0
  -19.6787  -12.8781   15.7106 H   0  0  0  0  0  0  0  0  0  0  0  0
  -16.5904  -15.0826   13.3584 H   0  0  0  0  0  0  0  0  0  0  0  0
  -14.7034  -14.2585   11.9704 H   0  0  0  0  0  0  0  0  0  0  0  0
  -10.2147  -13.9688   11.3987 H   0  0  0  0  0  0  0  0  0  0  0  0
  -10.0411  -12.1920   11.4210 H   0  0  0  0  0  0  0  0  0  0  0  0
   -8.0651  -13.4383   12.3940 H   0  0  0  0  0  0  0  0  0  0  0  0
   -8.8796  -12.2734   13.5471 H   0  0  0  0  0  0  0  0  0  0  0  0
   -9.4259  -15.4409   12.3365 H   0  0  0  0  0  0  0  0  0  0  0  0
   -9.2995  -16.2276   13.9747 H   0  0  0  0  0  0  0  0  0  0  0  0
  -11.3101  -16.1085   14.3428 H   0  0  0  0  0  0  0  0  0  0  0  0
  -12.5667  -14.9801   12.0104 H   0  0  0  0  0  0  0  0  0  0  0  0
  -11.1718  -16.1435   11.6089 H   0  0  0  0  0  0  0  0  0  0  0  0
  -14.5701  -15.7507   12.2727 H   0  0  0  0  0  0  0  0  0  0  0  0
  -16.1478  -17.6055   12.6045 H   0  0  0  0  0  0  0  0  0  0  0  0
  -15.3283  -19.9148   13.0004 H   0  0  0  0  0  0  0  0  0  0  0  0
  -12.9610  -21.3880   13.2050 H   0  0  0  0  0  0  0  0  0  0  0  0
  -10.1686  -18.3029   12.6423 H   0  0  0  0  0  0  0  0  0  0  0  0
  -12.8178  -14.0324   13.8838 H   0  0  0  0  0  0  0  0  0  0  0  0
  -11.2912  -13.6586   14.8060 H   0  0  0  0  0  0  0  0  0  0  0  0
  -12.5695  -13.0850   10.4896 H   0  0  0  0  0  0  0  0  0  0  0  0
  -14.1535  -13.7033   11.0162 H   0  0  0  0  0  0  0  0  0  0  0  0
  -13.5820  -11.9886    8.8012 H   0  0  0  0  0  0  0  0  0  0  0  0
  -15.1894  -12.4957    9.3881 H   0  0  0  0  0  0  0  0  0  0  0  0
  -14.0674   -9.8820    9.4760 H   0  0  0  0  0  0  0  0  0  0  0  0
  -15.5749  -10.4194   10.2615 H   0  0  0  0  0  0  0  0  0  0  0  0
  -12.9121   -9.9008   11.4050 H   0  0  0  0  0  0  0  0  0  0  0  0
  -14.5033   -9.9609   12.2090 H   0  0  0  0  0  0  0  0  0  0  0  0
  -14.8545  -10.4920   13.9376 H   0  0  0  0  0  0  0  0  0  0  0  0
  -16.7507  -11.2750   15.3509 H   0  0  0  0  0  0  0  0  0  0  0  0
  1  2  1  0
  2  3  1  0
  3  4  2  0
  4  5  1  0
  5  6  2  0
  6  7  1  0
  7  8  1  0
  8  9  2  0
  8 10  1  0
 10 11  1  0
 11 12  1  0
 12 13  1  0
 13 14  1  0
 14 15  1  0
 15 16  1  0
 16 17  1  0
 17 18  2  0
 18 19  1  0
 19 20  2  0
 20 21  1  0
 21 22  1  0
 22 23  1  0
 23 24  2  0
 24 25  1  0
 15 26  1  0
  7 27  1  0
 27 28  1  0
 28 29  1  0
 29 30  1  0
  6 31  1  0
 31 32  2  0
 32  3  1  0
 30  7  1  0
 26 10  1  0
 25 17  1  0
 25 21  2  0
  1 33  1  0
  1 34  1  0
  1 35  1  0
  4 36  1  0
  5 37  1  0
 11 38  1  0
 11 39  1  0
 12 40  1  0
 12 41  1  0
 14 42  1  0
 14 43  1  0
 15 44  1  1
 16 45  1  0
 16 46  1  0
 18 47  1  0
 19 48  1  0
 20 49  1  0
 22 50  1  0
 24 51  1  0
 26 52  1  0
 26 53  1  0
 27 54  1  0
 27 55  1  0
 28 56  1  0
 28 57  1  0
 29 58  1  0
 29 59  1  0
 30 60  1  0
 30 61  1  0
 31 62  1  0
 32 63  1  0
M  END
$$$$
