
     RDKit          3D

 53 56  0  0  0  0  0  0  0  0999 V2000
  -14.9690  -17.2350   12.7070 C   0  0  0  0  0  0  0  0  0  0  0  0
  -13.7130  -18.0090   12.8410 C   0  0  0  0  0  0  0  0  0  0  0  0
  -13.6790  -19.2980   12.9720 O   0  0  0  0  0  0  0  0  0  0  0  0
  -12.4500  -19.7140   13.0700 C   0  0  0  0  0  0  0  0  0  0  0  0
  -12.0470  -21.1240   13.2290 C   0  0  0  0  0  0  0  0  0  0  0  0
  -12.8350  -22.2390   13.4070 C   0  0  0  0  0  0  0  0  0  0  0  0
  -11.9960  -23.3110   13.5040 N   0  0  0  0  0  0  0  0  0  0  0  0
  -10.7440  -22.9270   13.3990 N   0  0  0  0  0  0  0  0  0  0  0  0
   -9.5680  -23.7720   13.4510 C   0  0  0  0  0  0  0  0  0  0  0  0
  -10.7530  -21.5720   13.2270 C   0  0  0  0  0  0  0  0  0  0  0  0
  -11.6860  -18.6420   12.9990 N   0  0  0  0  0  0  0  0  0  0  0  0
  -12.4250  -17.5280   12.8530 C   0  0  0  0  0  0  0  0  0  0  0  0
  -12.0690  -16.1380   12.7180 C   0  0  0  0  0  0  0  0  0  0  0  0
  -11.6800  -15.8250   11.5980 O   0  0  0  0  0  0  0  0  0  0  0  0
  -11.9330  -14.8860   13.2520 N   0  0  0  0  0  4  0  0  0  0  0  0
  -12.5660  -13.8420   12.5130 C   0  0  0  0  0  0  0  0  0  0  0  0
  -12.6500  -12.5570   13.3240 C   0  0  0  0  0  0  0  0  0  0  0  0
  -13.9030  -12.6840   14.1540 C   0  0  0  0  0  0  0  0  0  0  0  0
  -15.1430  -12.1720   13.5120 C   0  0  0  0  0  0  0  0  0  0  0  0
  -15.1780  -10.7920   13.3250 O   0  0  0  0  0  0  0  0  0  0  0  0
  -16.3570  -12.6110   14.2450 C   0  0  0  0  0  0  0  0  0  0  0  0
  -17.2500  -13.5230   13.7140 C   0  0  0  0  0  0  0  0  0  0  0  0
  -18.3890  -13.9270   14.3730 C   0  0  0  0  0  0  0  0  0  0  0  0
  -18.6790  -13.4140   15.6200 C   0  0  0  0  0  0  0  0  0  0  0  0
  -19.8010  -13.7880   16.3090 F   0  0  0  0  0  0  0  0  0  0  0  0
  -17.8100  -12.5090   16.1640 C   0  0  0  0  0  0  0  0  0  0  0  0
  -16.6590  -12.1080   15.4870 C   0  0  0  0  0  0  0  0  0  0  0  0
  -13.9910  -14.1790   14.4560 C   0  0  0  0  0  0  0  0  0  0  0  0
  -12.5990  -14.6760   14.5950 C   0  0  0  0  0  0  0  0  0  0  0  0
  -15.3597  -16.9942   13.7067 H   0  0  0  0  0  0  0  0  0  0  0  0
  -14.7688  -16.3034   12.1574 H   0  0  0  0  0  0  0  0  0  0  0  0
  -15.7111  -17.8327   12.1574 H   0  0  0  0  0  0  0  0  0  0  0  0
  -13.9335  -22.2615   13.4609 H   0  0  0  0  0  0  0  0  0  0  0  0
   -9.3006  -23.9641   14.5006 H   0  0  0  0  0  0  0  0  0  0  0  0
   -9.7794  -24.7261   12.9459 H   0  0  0  0  0  0  0  0  0  0  0  0
   -8.7312  -23.2673   12.9459 H   0  0  0  0  0  0  0  0  0  0  0  0
   -9.8609  -20.9399   13.1059 H   0  0  0  0  0  0  0  0  0  0  0  0
  -11.0450  -14.7870   13.6130 H   0  0  0  0  0  0  0  0  0  0  0  0
  -11.9868  -13.6499   11.5978 H   0  0  0  0  0  0  0  0  0  0  0  0
  -13.5892  -14.1635   12.2684 H   0  0  0  0  0  0  0  0  0  0  0  0
  -11.7679  -12.4540   13.9731 H   0  0  0  0  0  0  0  0  0  0  0  0
  -12.6781  -11.6678   12.6770 H   0  0  0  0  0  0  0  0  0  0  0  0
  -13.8335  -12.0536   15.0528 H   0  0  0  0  0  0  0  0  0  0  0  0
  -15.1314  -12.6177   12.5064 H   0  0  0  0  0  0  0  0  0  0  0  0
  -14.3580  -10.4360   12.9160 H   0  0  0  0  0  0  0  0  0  0  0  0
  -17.0409  -13.9449   12.7199 H   0  0  0  0  0  0  0  0  0  0  0  0
  -19.0663  -14.6573   13.9062 H   0  0  0  0  0  0  0  0  0  0  0  0
  -18.0238  -12.0882   17.1576 H   0  0  0  0  0  0  0  0  0  0  0  0
  -15.9824  -11.3776   15.9547 H   0  0  0  0  0  0  0  0  0  0  0  0
  -14.5461  -14.3435   15.3913 H   0  0  0  0  0  0  0  0  0  0  0  0
  -14.5197  -14.7117   13.6518 H   0  0  0  0  0  0  0  0  0  0  0  0
  -12.0156  -13.9412   15.1693 H   0  0  0  0  0  0  0  0  0  0  0  0
  -12.6357  -15.6470   15.1106 H   0  0  0  0  0  0  0  0  0  0  0  0
  1  2  1  0
  2  3  1  0
  3  4  1  0
  4  5  1  0
  5  6  1  0
  6  7  2  0
  7  8  1  0
  8  9  1  0
  8 10  1  0
  4 11  2  0
 11 12  1  0
 12 13  1  0
 13 14  2  0
 13 15  1  0
 15 16  1  0
 16 17  1  0
 17 18  1  0
 18 19  1  0
 19 20  1  0
 19 21  1  0
 21 22  2  0
 22 23  1  0
 23 24  2  0
 24 25  1  0
 24 26  1  0
 26 27  2  0
 18 28  1  0
 28 29  1  0
 12  2  2  0
 29 15  1  0
 10  5  2  0
 27 21  1  0
  1 30  1  0
  1 31  1  0
  1 32  1  0
  6 33  1  0
  9 34  1  0
  9 35  1  0
  9 36  1  0
 10 37  1  0
 15 38  1  0
 16 39  1  0
 16 40  1  0
 17 41  1  0
 17 42  1  0
 18 43  1  0
 19 44  1  0
 20 45  1  0
 22 46  1  0
 23 47  1  0
 26 48  1  0
 27 49  1  0
 28 50  1  0
 28 51  1  0
 29 52  1  0
 29 53  1  0
M  CHG  1  15   1
M  END
