
     RDKit          3D

 53 56  0  0  0  0  0  0  0  0999 V2000
  -12.5450  -22.3950   13.4820 C   0  0  0  0  0  0  0  0  0  0  0  0
  -12.2010  -21.0170   13.1710 N   0  0  0  0  0  0  0  0  0  0  0  0
  -12.9930  -19.9750   12.9040 C   0  0  0  0  0  0  0  0  0  0  0  0
  -12.1910  -18.8820   12.6710 C   0  0  0  0  0  0  0  0  0  0  0  0
  -12.6050  -17.5210   12.3400 C   0  0  0  0  0  0  0  0  0  0  0  0
  -13.2090  -16.6220   13.1450 N   0  0  0  0  0  0  0  0  0  0  0  0
  -13.4260  -15.4770   12.4620 C   0  0  0  0  0  0  0  0  0  0  0  0
  -14.0720  -14.2280   12.9830 C   0  0  0  0  0  0  0  0  0  0  0  0
  -15.5570  -14.4320   13.1080 C   0  0  0  0  0  0  0  0  0  0  0  0
  -15.9380  -14.8410   14.3770 O   0  0  0  0  0  0  0  0  0  0  0  0
  -15.5080  -14.0070   15.3760 C   0  0  0  0  0  0  0  0  0  0  0  0
  -14.0040  -14.1350   15.5150 C   0  0  0  0  0  0  0  0  0  0  0  0
  -13.4450  -13.8340   14.2090 N   0  0  0  0  0  0  0  0  0  0  0  0
  -12.2200  -13.1190   14.1570 C   0  0  0  0  0  0  0  0  0  0  0  0
  -11.1400  -13.7520   14.2300 O   0  0  0  0  0  0  0  0  0  0  0  0
  -12.2090  -11.6510   14.0150 C   0  0  0  0  0  0  0  0  0  0  0  0
  -11.6250  -11.0950   12.7780 C   0  0  0  0  0  0  0  0  0  0  0  0
  -12.5180  -10.8630   11.6210 C   0  0  0  0  0  0  0  0  0  0  0  0
  -13.9620  -10.6660   12.1170 C   0  0  0  0  0  0  0  0  0  0  0  0
  -14.6920   -9.9270   11.0280 C   0  0  0  0  0  0  0  0  0  0  0  0
  -13.9710  -10.0910    9.7360 C   0  0  0  0  0  0  0  0  0  0  0  0
  -13.3650  -11.4360    9.5010 C   0  0  0  0  0  0  0  0  0  0  0  0
  -12.6070  -11.9140   10.6470 N   0  0  0  0  0  0  0  0  0  0  0  0
  -12.9400  -15.7030   11.2310 N   0  0  0  0  0  0  0  0  0  0  0  0
  -12.4630  -16.9140   11.1890 O   0  0  0  0  0  0  0  0  0  0  0  0
  -10.8910  -19.3160   12.8110 C   0  0  0  0  0  0  0  0  0  0  0  0
  -10.9390  -20.6080   13.1120 N   0  0  0  0  0  0  0  0  0  0  0  0
  -12.5780  -22.5273   14.5735 H   0  0  0  0  0  0  0  0  0  0  0  0
  -13.5300  -22.6326   13.0539 H   0  0  0  0  0  0  0  0  0  0  0  0
  -11.7872  -23.0677   13.0539 H   0  0  0  0  0  0  0  0  0  0  0  0
  -14.0925  -19.9886   12.8755 H   0  0  0  0  0  0  0  0  0  0  0  0
  -13.9299  -13.3982   12.2750 H   0  0  0  0  0  0  0  0  0  0  0  0
  -16.0628  -13.4827   12.8780 H   0  0  0  0  0  0  0  0  0  0  0  0
  -15.8426  -15.2274   12.4039 H   0  0  0  0  0  0  0  0  0  0  0  0
  -15.7678  -12.9678   15.1258 H   0  0  0  0  0  0  0  0  0  0  0  0
  -15.9929  -14.2830   16.3240 H   0  0  0  0  0  0  0  0  0  0  0  0
  -13.6289  -13.4212   16.2632 H   0  0  0  0  0  0  0  0  0  0  0  0
  -13.7185  -15.1436   15.8484 H   0  0  0  0  0  0  0  0  0  0  0  0
  -13.2518  -11.3056   14.0725 H   0  0  0  0  0  0  0  0  0  0  0  0
  -11.5530  -11.2939   14.8225 H   0  0  0  0  0  0  0  0  0  0  0  0
  -11.1721  -10.1270   13.0386 H   0  0  0  0  0  0  0  0  0  0  0  0
  -10.9310  -11.8752   12.4320 H   0  0  0  0  0  0  0  0  0  0  0  0
  -12.0626   -9.9891   11.1322 H   0  0  0  0  0  0  0  0  0  0  0  0
  -14.4375  -11.6411   12.2989 H   0  0  0  0  0  0  0  0  0  0  0  0
  -13.9842  -10.1040   13.0623 H   0  0  0  0  0  0  0  0  0  0  0  0
  -15.7104  -10.3314   10.9317 H   0  0  0  0  0  0  0  0  0  0  0  0
  -14.7401   -8.8582   11.2838 H   0  0  0  0  0  0  0  0  0  0  0  0
  -14.6852   -9.8948    8.9227 H   0  0  0  0  0  0  0  0  0  0  0  0
  -13.1294   -9.3835    9.7693 H   0  0  0  0  0  0  0  0  0  0  0  0
  -14.1709  -12.1534    9.2871 H   0  0  0  0  0  0  0  0  0  0  0  0
  -12.6687  -11.3453    8.6543 H   0  0  0  0  0  0  0  0  0  0  0  0
  -13.2480  -12.6470   11.0850 H   0  0  0  0  0  0  0  0  0  0  0  0
   -9.9830  -18.7060   12.6950 H   0  0  0  0  0  0  0  0  0  0  0  0
  1  2  1  0
  2  3  1  0
  3  4  2  0
  4  5  1  0
  5  6  2  0
  6  7  1  0
  7  8  1  0
  8  9  1  0
  9 10  1  0
 10 11  1  0
 11 12  1  0
 12 13  1  0
 13 14  1  0
 14 15  2  0
 14 16  1  0
 16 17  1  0
 17 18  1  0
 18 19  1  0
 19 20  1  0
 20 21  1  0
 21 22  1  0
 22 23  1  0
  7 24  2  0
 24 25  1  0
  4 26  1  0
 26 27  2  0
 27  2  1  0
 25  5  1  0
 13  8  1  0
 23 18  1  0
  1 28  1  0
  1 29  1  0
  1 30  1  0
  3 31  1  0
  8 32  1  0
  9 33  1  0
  9 34  1  0
 11 35  1  0
 11 36  1  0
 12 37  1  0
 12 38  1  0
 16 39  1  0
 16 40  1  0
 17 41  1  0
 17 42  1  0
 18 43  1  0
 19 44  1  0
 19 45  1  0
 20 46  1  0
 20 47  1  0
 21 48  1  0
 21 49  1  0
 22 50  1  0
 22 51  1  0
 23 52  1  0
 26 53  1  0
M  END
