
     RDKit          3D

 51 54  0  0  0  0  0  0  0  0999 V2000
   -9.9120  -10.9930   16.4460 C   0  0  0  0  0  0  0  0  0  0  0  0
  -10.4900  -11.5020   15.2100 N   0  0  0  0  0  0  0  0  0  0  0  0
  -11.4810  -10.9350   14.4770 C   0  0  0  0  0  0  0  0  0  0  0  0
  -11.7360  -11.7460   13.3640 C   0  0  0  0  0  0  0  0  0  0  0  0
  -12.7440  -11.4480   12.3710 C   0  0  0  0  0  0  0  0  0  0  0  0
  -12.4510  -10.5660   11.3300 C   0  0  0  0  0  0  0  0  0  0  0  0
  -13.3690  -10.2450   10.3590 C   0  0  0  0  0  0  0  0  0  0  0  0
  -14.6150  -10.8160   10.4210 C   0  0  0  0  0  0  0  0  0  0  0  0
  -14.9060  -11.6860   11.4470 C   0  0  0  0  0  0  0  0  0  0  0  0
  -13.9790  -12.0190   12.4410 C   0  0  0  0  0  0  0  0  0  0  0  0
  -14.3830  -12.9440   13.4750 C   0  0  0  0  0  0  0  0  0  0  0  0
  -14.9270  -12.5750   14.5540 O   0  0  0  0  0  0  0  0  0  0  0  0
  -14.1710  -14.3330   13.2900 N   0  0  0  0  0  0  0  0  0  0  0  0
  -14.5660  -15.2820   14.3090 C   0  0  0  0  0  0  0  0  0  0  0  0
  -14.5950  -16.6580   13.6260 C   0  0  0  0  0  0  0  0  0  0  0  0
  -13.1790  -16.9740   13.2540 C   0  0  0  0  0  0  0  0  0  0  0  0
  -12.9820  -18.3370   12.6790 C   0  0  0  0  0  0  0  0  0  0  0  0
  -12.4840  -18.1690   11.3750 O   0  0  0  0  0  0  0  0  0  0  0  0
  -11.9800  -19.1750   13.4200 C   0  0  0  0  0  0  0  0  0  0  0  0
  -12.4530  -20.5730   13.0840 C   0  0  0  0  0  0  0  0  0  0  0  0
  -13.7810  -20.5180   12.7720 O   0  0  0  0  0  0  0  0  0  0  0  0
  -14.1920  -19.2100   12.7050 C   0  0  0  0  0  0  0  0  0  0  0  0
  -12.6310  -15.9610   12.2760 C   0  0  0  0  0  0  0  0  0  0  0  0
  -13.5530  -14.7900   12.0690 C   0  0  0  0  0  0  0  0  0  0  0  0
  -10.8560  -12.7880   13.4960 C   0  0  0  0  0  0  0  0  0  0  0  0
  -10.1150  -12.6250   14.6090 N   0  0  0  0  0  0  0  0  0  0  0  0
  -10.4270  -11.4466   17.3057 H   0  0  0  0  0  0  0  0  0  0  0  0
   -8.8426  -11.2480   16.4830 H   0  0  0  0  0  0  0  0  0  0  0  0
  -10.0298   -9.8999   16.4830 H   0  0  0  0  0  0  0  0  0  0  0  0
  -11.9983   -9.9944   14.7171 H   0  0  0  0  0  0  0  0  0  0  0  0
  -11.4502  -10.1118   11.2851 H   0  0  0  0  0  0  0  0  0  0  0  0
  -13.1106   -9.5458    9.5501 H   0  0  0  0  0  0  0  0  0  0  0  0
  -15.3729  -10.5811    9.6592 H   0  0  0  0  0  0  0  0  0  0  0  0
  -15.9080  -12.1380   11.4873 H   0  0  0  0  0  0  0  0  0  0  0  0
  -13.8380  -15.2810   15.1336 H   0  0  0  0  0  0  0  0  0  0  0  0
  -15.5468  -15.0261   14.7362 H   0  0  0  0  0  0  0  0  0  0  0  0
  -14.9855  -17.4184   14.3183 H   0  0  0  0  0  0  0  0  0  0  0  0
  -15.2482  -16.6508   12.7410 H   0  0  0  0  0  0  0  0  0  0  0  0
  -12.6312  -16.9353   14.2071 H   0  0  0  0  0  0  0  0  0  0  0  0
  -13.1080  -18.5740   10.7330 H   0  0  0  0  0  0  0  0  0  0  0  0
  -10.9579  -18.9973   13.0543 H   0  0  0  0  0  0  0  0  0  0  0  0
  -11.9280  -18.9650   14.4985 H   0  0  0  0  0  0  0  0  0  0  0  0
  -11.8857  -20.9601   12.2247 H   0  0  0  0  0  0  0  0  0  0  0  0
  -12.2953  -21.2409   13.9437 H   0  0  0  0  0  0  0  0  0  0  0  0
  -14.7833  -19.0527   11.7909 H   0  0  0  0  0  0  0  0  0  0  0  0
  -14.8164  -18.9648   13.5768 H   0  0  0  0  0  0  0  0  0  0  0  0
  -11.6697  -15.5877   12.6588 H   0  0  0  0  0  0  0  0  0  0  0  0
  -12.5162  -16.4667   11.3059 H   0  0  0  0  0  0  0  0  0  0  0  0
  -12.9736  -13.9602   11.6381 H   0  0  0  0  0  0  0  0  0  0  0  0
  -14.3589  -15.1219   11.3980 H   0  0  0  0  0  0  0  0  0  0  0  0
  -10.7678  -13.6325   12.7967 H   0  0  0  0  0  0  0  0  0  0  0  0
  1  2  1  0
  2  3  1  0
  3  4  2  0
  4  5  1  0
  5  6  2  0
  6  7  1  0
  7  8  2  0
  8  9  1  0
  9 10  2  0
 10 11  1  0
 11 12  2  0
 11 13  1  0
 13 14  1  0
 14 15  1  0
 15 16  1  0
 16 17  1  0
 17 18  1  0
 17 19  1  0
 19 20  1  0
 20 21  1  0
 21 22  1  0
 16 23  1  0
 23 24  1  0
  4 25  1  0
 25 26  2  0
 26  2  1  0
 10  5  1  0
 24 13  1  0
 22 17  1  0
  1 27  1  0
  1 28  1  0
  1 29  1  0
  3 30  1  0
  6 31  1  0
  7 32  1  0
  8 33  1  0
  9 34  1  0
 14 35  1  0
 14 36  1  0
 15 37  1  0
 15 38  1  0
 16 39  1  0
 18 40  1  0
 19 41  1  0
 19 42  1  0
 20 43  1  0
 20 44  1  0
 22 45  1  0
 22 46  1  0
 23 47  1  0
 23 48  1  0
 24 49  1  0
 24 50  1  0
 25 51  1  0
M  END
