
     RDKit          3D

 63 66  0  0  0  0  0  0  0  0999 V2000
  -11.0750  -24.4610   14.9130 C   0  0  0  0  0  0  0  0  0  0  0  0
  -10.9610  -23.8970   13.5070 C   0  0  0  0  0  0  0  0  0  0  0  0
   -9.4900  -23.7700   13.1930 C   0  0  0  0  0  0  0  0  0  0  0  0
  -11.5080  -24.9250   12.5140 C   0  0  0  0  0  0  0  0  0  0  0  0
  -11.7030  -22.6280   13.3240 C   0  0  0  0  0  0  0  0  0  0  0  0
  -11.1550  -21.3530   13.3340 C   0  0  0  0  0  0  0  0  0  0  0  0
  -12.1560  -20.4430   13.1220 C   0  0  0  0  0  0  0  0  0  0  0  0
  -12.1130  -18.9800   13.0500 C   0  0  0  0  0  0  0  0  0  0  0  0
  -11.8430  -18.3730   11.9920 O   0  0  0  0  0  0  0  0  0  0  0  0
  -12.3970  -18.2210   14.2150 N   0  0  0  0  0  0  0  0  0  0  0  0
  -12.4210  -16.8160   14.3520 C   0  0  0  0  0  0  0  0  0  0  0  0
  -13.7010  -16.0710   14.1730 C   0  0  0  0  0  0  0  0  0  0  0  0
  -13.3050  -14.6080   14.2200 C   0  0  0  0  0  0  0  0  0  0  0  0
  -14.1940  -13.7340   15.0840 C   0  0  0  0  0  0  0  0  0  0  0  0
  -14.8020  -12.8440   14.1770 N   0  0  0  0  0  4  0  0  0  0  0  0
  -13.9910  -11.8240   13.8090 C   0  0  0  0  0  0  0  0  0  0  0  0
  -14.9430  -11.1380   13.5120 O   0  0  0  0  0  0  0  0  0  0  0  0
  -12.8190  -11.0070   13.5290 C   0  0  0  0  0  0  0  0  0  0  0  0
  -11.6700  -11.3460   14.4390 C   0  0  0  0  0  0  0  0  0  0  0  0
  -10.3080  -11.0330   13.8460 C   0  0  0  0  0  0  0  0  0  0  0  0
  -10.1830  -11.9590   12.6920 C   0  0  0  0  0  0  0  0  0  0  0  0
   -9.2790  -12.8630   12.1870 C   0  0  0  0  0  0  0  0  0  0  0  0
   -9.7820  -13.4200   11.0520 N   0  0  0  0  0  0  0  0  0  0  0  0
  -10.9680  -12.8620   10.8780 N   0  0  0  0  0  0  0  0  0  0  0  0
  -11.2570  -11.9810   11.8320 C   0  0  0  0  0  0  0  0  0  0  0  0
  -12.3930  -11.1060   12.0990 C   0  0  0  0  0  0  0  0  0  0  0  0
  -15.5580  -13.3850   13.1520 C   0  0  0  0  0  0  0  0  0  0  0  0
  -14.5800  -14.2210   12.2950 C   0  0  0  0  0  0  0  0  0  0  0  0
  -13.3040  -14.2090   12.8710 O   0  0  0  0  0  0  0  0  0  0  0  0
  -13.2670  -21.2030   12.9910 N   0  0  0  0  0  0  0  0  0  0  0  0
  -12.9890  -22.4650   13.1110 O   0  0  0  0  0  0  0  0  0  0  0  0
  -10.9124  -23.6563   15.6452 H   0  0  0  0  0  0  0  0  0  0  0  0
  -12.0779  -24.8896   15.0559 H   0  0  0  0  0  0  0  0  0  0  0  0
  -10.3173  -25.2455   15.0559 H   0  0  0  0  0  0  0  0  0  0  0  0
   -8.9178  -23.7206   14.1311 H   0  0  0  0  0  0  0  0  0  0  0  0
   -9.1629  -24.6432   12.6095 H   0  0  0  0  0  0  0  0  0  0  0  0
   -9.3174  -22.8536   12.6095 H   0  0  0  0  0  0  0  0  0  0  0  0
  -11.9552  -25.7654   13.0652 H   0  0  0  0  0  0  0  0  0  0  0  0
  -12.2739  -24.4524   11.8815 H   0  0  0  0  0  0  0  0  0  0  0  0
  -10.6881  -25.2962   11.8815 H   0  0  0  0  0  0  0  0  0  0  0  0
  -10.0924  -21.1131   13.4869 H   0  0  0  0  0  0  0  0  0  0  0  0
  -12.6150  -18.8480   15.0770 H   0  0  0  0  0  0  0  0  0  0  0  0
  -12.0610  -16.5896   15.3665 H   0  0  0  0  0  0  0  0  0  0  0  0
  -11.8064  -16.4691   13.5083 H   0  0  0  0  0  0  0  0  0  0  0  0
  -14.1610  -16.3174   13.2047 H   0  0  0  0  0  0  0  0  0  0  0  0
  -14.4424  -16.3264   14.9444 H   0  0  0  0  0  0  0  0  0  0  0  0
  -12.3258  -14.4866   14.7062 H   0  0  0  0  0  0  0  0  0  0  0  0
  -14.9521  -14.3410   15.6006 H   0  0  0  0  0  0  0  0  0  0  0  0
  -13.6294  -13.2101   15.8694 H   0  0  0  0  0  0  0  0  0  0  0  0
  -15.6670  -12.6440   14.8150 H   0  0  0  0  0  0  0  0  0  0  0  0
  -13.1164   -9.9659   13.7232 H   0  0  0  0  0  0  0  0  0  0  0  0
  -11.7835  -10.7715   15.3702 H   0  0  0  0  0  0  0  0  0  0  0  0
  -11.7044  -12.4323   14.6087 H   0  0  0  0  0  0  0  0  0  0  0  0
  -10.2609   -9.9862   13.5114 H   0  0  0  0  0  0  0  0  0  0  0  0
   -9.4947  -11.1616   14.5754 H   0  0  0  0  0  0  0  0  0  0  0  0
   -8.3009  -13.0994   12.6314 H   0  0  0  0  0  0  0  0  0  0  0  0
   -9.3500  -14.1420   10.4160 H   0  0  0  0  0  0  0  0  0  0  0  0
  -12.1279  -10.0952   11.7555 H   0  0  0  0  0  0  0  0  0  0  0  0
  -13.2447  -11.5524   11.5648 H   0  0  0  0  0  0  0  0  0  0  0  0
  -16.3522  -14.0269   13.5609 H   0  0  0  0  0  0  0  0  0  0  0  0
  -16.0467  -12.6007   12.5552 H   0  0  0  0  0  0  0  0  0  0  0  0
  -14.9428  -15.2578   12.2362 H   0  0  0  0  0  0  0  0  0  0  0  0
  -14.5235  -13.7862   11.2861 H   0  0  0  0  0  0  0  0  0  0  0  0
  1  2  1  0
  2  3  1  0
  2  4  1  0
  2  5  1  0
  5  6  2  0
  6  7  1  0
  7  8  1  0
  8  9  2  0
  8 10  1  0
 10 11  1  0
 11 12  1  0
 12 13  1  0
 13 14  1  0
 14 15  1  0
 15 16  1  0
 16 17  2  0
 16 18  1  0
 18 19  1  0
 19 20  1  0
 20 21  1  0
 21 22  2  0
 22 23  1  0
 23 24  1  0
 24 25  2  0
 25 26  1  0
 15 27  1  0
 27 28  1  0
 28 29  1  0
  7 30  2  0
 30 31  1  0
 31  5  1  0
 29 13  1  0
 26 18  1  0
 25 21  1  0
  1 32  1  0
  1 33  1  0
  1 34  1  0
  3 35  1  0
  3 36  1  0
  3 37  1  0
  4 38  1  0
  4 39  1  0
  4 40  1  0
  6 41  1  0
 10 42  1  0
 11 43  1  0
 11 44  1  0
 12 45  1  0
 12 46  1  0
 13 47  1  0
 14 48  1  0
 14 49  1  0
 15 50  1  0
 18 51  1  0
 19 52  1  0
 19 53  1  0
 20 54  1  0
 20 55  1  0
 22 56  1  0
 23 57  1  0
 26 58  1  0
 26 59  1  0
 27 60  1  0
 27 61  1  0
 28 62  1  0
 28 63  1  0
M  CHG  1  15   1
M  END
