
     RDKit          3D

 52 55  0  0  0  0  0  0  0  0999 V2000
   -9.4500  -26.1400   14.9930 C   0  0  0  0  0  0  0  0  0  0  0  0
  -10.2030  -24.9340   14.5570 C   0  0  0  0  0  0  0  0  0  0  0  0
  -11.5880  -24.9290   14.5350 C   0  0  0  0  0  0  0  0  0  0  0  0
  -12.2840  -23.7970   14.1260 C   0  0  0  0  0  0  0  0  0  0  0  0
  -11.6320  -22.6510   13.7310 C   0  0  0  0  0  0  0  0  0  0  0  0
  -12.3730  -21.4590   13.3010 C   0  0  0  0  0  0  0  0  0  0  0  0
  -11.9150  -20.2080   13.0330 C   0  0  0  0  0  0  0  0  0  0  0  0
  -13.0370  -19.4590   12.6640 C   0  0  0  0  0  0  0  0  0  0  0  0
  -13.0100  -18.0620   12.2930 C   0  0  0  0  0  0  0  0  0  0  0  0
  -12.2110  -17.6160   11.4010 O   0  0  0  0  0  0  0  0  0  0  0  0
  -13.8960  -17.1490   12.9330 N   0  0  0  0  0  0  0  0  0  0  0  0
  -13.9340  -15.7330   12.6210 C   0  0  1  0  0  0  0  0  0  0  0  0
  -15.2180  -15.1840   13.1700 C   0  0  0  0  0  0  0  0  0  0  0  0
  -15.0730  -14.5000   14.4920 C   0  0  0  0  0  0  0  0  0  0  0  0
  -13.9660  -15.0770   15.2990 C   0  0  0  0  0  0  0  0  0  0  0  0
  -14.0690  -15.3800   16.5090 O   0  0  0  0  0  0  0  0  0  0  0  0
  -12.7270  -15.2870   14.6330 N   0  0  0  0  0  0  0  0  0  0  0  0
  -12.7060  -15.1050   13.1990 C   0  0  2  0  0  0  0  0  0  0  0  0
  -12.5800  -13.6640   12.8730 C   0  0  0  0  0  0  0  0  0  0  0  0
  -11.8820  -12.7820   13.6780 C   0  0  0  0  0  0  0  0  0  0  0  0
  -11.9790  -11.5820   13.0790 N   0  0  0  0  0  0  0  0  0  0  0  0
  -12.6850  -11.6540   11.9660 N   0  0  0  0  0  0  0  0  0  0  0  0
  -12.9710  -10.5270   11.0860 C   0  0  0  0  0  0  0  0  0  0  0  0
  -13.0570  -12.9350   11.8330 C   0  0  0  0  0  0  0  0  0  0  0  0
  -14.1060  -20.2540   12.7190 N   0  0  0  0  0  2  0  0  0  0  0  0
  -13.6920  -21.4330   13.0980 N   0  0  0  0  0  0  0  0  0  0  0  0
  -10.2500  -22.6700   13.7580 C   0  0  0  0  0  0  0  0  0  0  0  0
   -9.5390  -23.7880   14.1630 C   0  0  0  0  0  0  0  0  0  0  0  0
   -8.0540  -23.8260   14.1980 C   0  0  0  0  0  0  0  0  0  0  0  0
   -9.4254  -26.1794   16.0920 H   0  0  0  0  0  0  0  0  0  0  0  0
   -9.9457  -27.0420   14.6047 H   0  0  0  0  0  0  0  0  0  0  0  0
   -8.4220  -26.0906   14.6047 H   0  0  0  0  0  0  0  0  0  0  0  0
  -12.1417  -25.8280   14.8436 H   0  0  0  0  0  0  0  0  0  0  0  0
  -13.3838  -23.8178   14.1179 H   0  0  0  0  0  0  0  0  0  0  0  0
  -10.8745  -19.8563   13.0938 H   0  0  0  0  0  0  0  0  0  0  0  0
  -14.5560  -17.4960   13.6640 H   0  0  0  0  0  0  0  0  0  0  0  0
  -13.9247  -15.5206   11.5417 H   0  0  0  0  0  0  0  0  0  0  0  0
  -15.6204  -14.4584   12.4478 H   0  0  0  0  0  0  0  0  0  0  0  0
  -15.8882  -16.0418   13.3281 H   0  0  0  0  0  0  0  0  0  0  0  0
  -14.8679  -13.4332   14.3193 H   0  0  0  0  0  0  0  0  0  0  0  0
  -16.0098  -14.6396   15.0514 H   0  0  0  0  0  0  0  0  0  0  0  0
  -11.8650  -15.5640   15.1710 H   0  0  0  0  0  0  0  0  0  0  0  0
  -11.8325  -15.6007   12.7503 H   0  0  0  0  0  0  0  0  0  0  0  0
  -11.3557  -13.0144   14.6155 H   0  0  0  0  0  0  0  0  0  0  0  0
  -13.1969   -9.6370   11.6917 H   0  0  0  0  0  0  0  0  0  0  0  0
  -12.0954  -10.3260   10.4512 H   0  0  0  0  0  0  0  0  0  0  0  0
  -13.8365  -10.7679   10.4512 H   0  0  0  0  0  0  0  0  0  0  0  0
  -13.6592  -13.3354   11.0042 H   0  0  0  0  0  0  0  0  0  0  0  0
   -9.6981  -21.7702   13.4486 H   0  0  0  0  0  0  0  0  0  0  0  0
   -7.7120  -23.8348   15.2434 H   0  0  0  0  0  0  0  0  0  0  0  0
   -7.6983  -24.7335   13.6882 H   0  0  0  0  0  0  0  0  0  0  0  0
   -7.6524  -22.9378   13.6882 H   0  0  0  0  0  0  0  0  0  0  0  0
  1  2  1  0
  2  3  2  0
  3  4  1  0
  4  5  2  0
  5  6  1  0
  6  7  1  0
  7  8  2  0
  8  9  1  0
  9 10  2  0
  9 11  1  0
 11 12  1  0
 12 13  1  0
 13 14  1  0
 14 15  1  0
 15 16  2  0
 15 17  1  0
 17 18  1  0
 18 19  1  0
 19 20  1  0
 20 21  2  0
 21 22  1  0
 22 23  1  0
 22 24  1  0
  8 25  1  0
 25 26  1  0
  5 27  1  0
 27 28  2  0
 28 29  1  0
 28  2  1  0
 26  6  2  0
 18 12  1  0
 24 19  2  0
  1 30  1  0
  1 31  1  0
  1 32  1  0
  3 33  1  0
  4 34  1  0
  7 35  1  0
 11 36  1  0
 12 37  1  6
 13 38  1  0
 13 39  1  0
 14 40  1  0
 14 41  1  0
 17 42  1  0
 18 43  1  6
 20 44  1  0
 23 45  1  0
 23 46  1  0
 23 47  1  0
 24 48  1  0
 27 49  1  0
 29 50  1  0
 29 51  1  0
 29 52  1  0
M  CHG  1  25  -1
M  END
