
     RDKit          3D

 62 65  0  0  0  0  0  0  0  0999 V2000
  -11.0510  -22.4510   13.5320 C   0  0  0  0  0  0  0  0  0  0  0  0
  -11.9670  -21.3210   13.2310 C   0  0  0  0  0  0  0  0  0  0  0  0
  -11.6090  -20.0010   13.0190 C   0  0  0  0  0  0  0  0  0  0  0  0
  -12.7840  -19.3200   12.7770 C   0  0  0  0  0  0  0  0  0  0  0  0
  -12.8640  -17.8690   12.4970 C   0  0  0  0  0  0  0  0  0  0  0  0
  -12.9310  -17.0890   13.7570 C   0  0  0  0  0  0  0  0  0  0  0  0
  -12.0930  -17.3480   14.6710 O   0  0  0  0  0  0  0  0  0  0  0  0
  -13.8810  -16.0810   13.9630 N   0  0  0  0  0  0  0  0  0  0  0  0
  -14.8450  -15.7660   12.9380 C   0  0  0  0  0  0  0  0  0  0  0  0
  -15.2230  -14.3080   12.9650 C   0  0  0  0  0  0  0  0  0  0  0  0
  -15.8430  -13.8970   14.3220 C   0  0  0  0  0  0  0  0  0  0  0  0
  -17.2990  -14.1030   14.2140 C   0  0  0  0  0  0  0  0  0  0  0  0
  -17.9410  -14.0780   15.4360 O   0  0  0  0  0  0  0  0  0  0  0  0
  -15.3780  -12.4980   14.5010 C   0  0  0  0  0  0  0  0  0  0  0  0
  -14.0580  -12.1100   14.3090 N   0  0  0  0  0  0  0  0  0  0  0  0
  -13.5630  -11.0530   13.5400 C   0  0  0  0  0  0  0  0  0  0  0  0
  -14.2990  -10.3160   12.8690 O   0  0  0  0  0  0  0  0  0  0  0  0
  -12.0810  -10.7590   13.4960 C   0  0  0  0  0  0  0  0  0  0  0  0
  -11.4830  -10.7010   14.8570 C   0  0  0  0  0  0  0  0  0  0  0  0
  -10.4740  -11.7530   15.1630 C   0  0  0  0  0  0  0  0  0  0  0  0
   -9.4830  -11.9620   14.0370 C   0  0  0  0  0  0  0  0  0  0  0  0
  -10.1780  -12.2470   12.7710 C   0  0  0  0  0  0  0  0  0  0  0  0
   -9.8740  -12.9930   11.7140 N   0  0  0  0  0  2  0  0  0  0  0  0
  -10.8540  -12.9010   10.8420 N   0  0  0  0  0  0  0  0  0  0  0  0
  -11.8090  -12.0940   11.3180 C   0  0  0  0  0  0  0  0  0  0  0  0
  -11.4040  -11.6550   12.5610 C   0  0  0  0  0  0  0  0  0  0  0  0
  -15.3420  -14.8030   15.4410 C   0  0  0  0  0  0  0  0  0  0  0  0
  -13.9420  -15.3270   15.1840 C   0  0  0  0  0  0  0  0  0  0  0  0
  -13.8000  -20.1730   12.8380 N   0  0  0  0  0  0  0  0  0  0  0  0
  -15.2140  -19.9330   12.6540 C   0  0  0  0  0  0  0  0  0  0  0  0
  -13.3050  -21.3670   13.1090 N   0  0  0  0  0  0  0  0  0  0  0  0
  -10.9572  -22.5667   14.6219 H   0  0  0  0  0  0  0  0  0  0  0  0
  -11.4564  -23.3771   13.0985 H   0  0  0  0  0  0  0  0  0  0  0  0
  -10.0610  -22.2460   13.0985 H   0  0  0  0  0  0  0  0  0  0  0  0
  -10.5929  -19.5800   13.0394 H   0  0  0  0  0  0  0  0  0  0  0  0
  -11.9725  -17.5620   11.9305 H   0  0  0  0  0  0  0  0  0  0  0  0
  -13.7762  -17.6736   11.9141 H   0  0  0  0  0  0  0  0  0  0  0  0
  -14.4127  -16.0051   11.9551 H   0  0  0  0  0  0  0  0  0  0  0  0
  -15.7516  -16.3611   13.1222 H   0  0  0  0  0  0  0  0  0  0  0  0
  -14.3210  -13.7036   12.7886 H   0  0  0  0  0  0  0  0  0  0  0  0
  -15.9752  -14.1365   12.1809 H   0  0  0  0  0  0  0  0  0  0  0  0
  -17.7193  -13.3074   13.5813 H   0  0  0  0  0  0  0  0  0  0  0  0
  -17.4580  -15.1012   13.7800 H   0  0  0  0  0  0  0  0  0  0  0  0
  -17.4670  -14.7170   16.0320 H   0  0  0  0  0  0  0  0  0  0  0  0
  -15.9771  -11.8884   13.8086 H   0  0  0  0  0  0  0  0  0  0  0  0
  -15.4911  -12.3653   15.5871 H   0  0  0  0  0  0  0  0  0  0  0  0
  -13.3070  -12.6900   14.8160 H   0  0  0  0  0  0  0  0  0  0  0  0
  -11.9291   -9.7459   13.0952 H   0  0  0  0  0  0  0  0  0  0  0  0
  -10.9955   -9.7215   14.9708 H   0  0  0  0  0  0  0  0  0  0  0  0
  -12.3141  -10.8689   15.5578 H   0  0  0  0  0  0  0  0  0  0  0  0
   -9.9214  -11.4574   16.0670 H   0  0  0  0  0  0  0  0  0  0  0  0
  -11.0159  -12.6994   15.3067 H   0  0  0  0  0  0  0  0  0  0  0  0
   -8.8763  -11.0522   13.9178 H   0  0  0  0  0  0  0  0  0  0  0  0
   -8.8429  -12.8209   14.2874 H   0  0  0  0  0  0  0  0  0  0  0  0
  -12.7477  -11.8286   10.8097 H   0  0  0  0  0  0  0  0  0  0  0  0
  -15.3375  -14.2321   16.3813 H   0  0  0  0  0  0  0  0  0  0  0  0
  -16.0174  -15.6695   15.4959 H   0  0  0  0  0  0  0  0  0  0  0  0
  -13.2485  -14.4760   15.1143 H   0  0  0  0  0  0  0  0  0  0  0  0
  -13.6626  -15.9909   16.0154 H   0  0  0  0  0  0  0  0  0  0  0  0
  -15.7027  -19.8501   13.6360 H   0  0  0  0  0  0  0  0  0  0  0  0
  -15.3572  -18.9977   12.0930 H   0  0  0  0  0  0  0  0  0  0  0  0
  -15.6578  -20.7687   12.0930 H   0  0  0  0  0  0  0  0  0  0  0  0
  1  2  1  0
  2  3  1  0
  3  4  2  0
  4  5  1  0
  5  6  1  0
  6  7  2  0
  6  8  1  0
  8  9  1  0
  9 10  1  0
 10 11  1  0
 11 12  1  0
 12 13  1  0
 11 14  1  0
 14 15  1  0
 15 16  1  0
 16 17  2  0
 16 18  1  0
 18 19  1  0
 19 20  1  0
 20 21  1  0
 21 22  1  0
 22 23  1  0
 23 24  1  0
 24 25  2  0
 25 26  1  0
 11 27  1  0
 27 28  1  0
  4 29  1  0
 29 30  1  0
 29 31  1  0
 31  2  2  0
 28  8  1  0
 26 18  1  0
 26 22  2  0
  1 32  1  0
  1 33  1  0
  1 34  1  0
  3 35  1  0
  5 36  1  0
  5 37  1  0
  9 38  1  0
  9 39  1  0
 10 40  1  0
 10 41  1  0
 12 42  1  0
 12 43  1  0
 13 44  1  0
 14 45  1  0
 14 46  1  0
 15 47  1  0
 18 48  1  0
 19 49  1  0
 19 50  1  0
 20 51  1  0
 20 52  1  0
 21 53  1  0
 21 54  1  0
 25 55  1  0
 27 56  1  0
 27 57  1  0
 28 58  1  0
 28 59  1  0
 30 60  1  0
 30 61  1  0
 30 62  1  0
M  CHG  1  23  -1
M  END
