
     RDKit          3D

 54 57  0  0  0  0  0  0  0  0999 V2000
   -9.1560  -13.7130   11.2020 C   0  0  0  0  0  0  0  0  0  0  0  0
   -9.7690  -13.4630   12.4780 N   0  0  0  0  0  0  0  0  0  0  0  0
   -9.1160  -13.5570   13.6700 C   0  0  0  0  0  0  0  0  0  0  0  0
   -9.9680  -13.2670   14.6400 N   0  0  0  0  0  0  0  0  0  0  0  0
  -11.1450  -12.9920   14.0660 C   0  0  0  0  0  0  0  0  0  0  0  0
  -11.0460  -13.1100   12.6880 C   0  0  0  0  0  0  0  0  0  0  0  0
  -12.1330  -12.8800   11.7200 C   0  0  2  0  0  0  0  0  0  0  0  0
  -12.6050  -11.5250   11.7020 N   0  0  0  0  0  0  0  0  0  0  0  0
  -13.5060  -11.1820   10.6530 C   0  0  0  0  0  0  0  0  0  0  0  0
  -13.7030   -9.9980   10.2780 O   0  0  0  0  0  0  0  0  0  0  0  0
  -14.2080  -12.3570   10.0290 C   0  0  0  0  0  0  0  0  0  0  0  0
  -14.5160  -13.2910   11.1810 C   0  0  0  0  0  0  0  0  0  0  0  0
  -13.2890  -13.8060   11.8850 C   0  0  1  0  0  0  0  0  0  0  0  0
  -13.0120  -15.1590   11.5000 N   0  0  0  0  0  0  0  0  0  0  0  0
  -13.5530  -16.2370   12.2490 C   0  0  0  0  0  0  0  0  0  0  0  0
  -14.2680  -15.9710   13.2500 O   0  0  0  0  0  0  0  0  0  0  0  0
  -13.3230  -17.5990   11.9140 N   0  0  0  0  0  0  0  0  0  0  0  0
  -13.8930  -18.6700   12.7010 C   0  0  0  0  0  0  0  0  0  0  0  0
  -12.8990  -19.7630   12.9420 C   0  0  0  0  0  0  0  0  0  0  0  0
  -11.5640  -19.5830   12.6630 C   0  0  0  0  0  0  0  0  0  0  0  0
  -10.6690  -20.6220   12.9010 C   0  0  0  0  0  0  0  0  0  0  0  0
  -11.0690  -21.8430   13.4130 C   0  0  0  0  0  0  0  0  0  0  0  0
  -12.4150  -22.0170   13.6920 C   0  0  0  0  0  0  0  0  0  0  0  0
  -13.2970  -20.9790   13.4530 C   0  0  0  0  0  0  0  0  0  0  0  0
  -12.5400  -23.3150   14.1890 O   0  0  0  0  0  0  0  0  0  0  0  0
  -11.3920  -24.0260   13.8010 C   0  0  0  0  0  0  0  0  0  0  0  0
  -11.6420  -24.5870   12.4270 C   0  0  0  0  0  0  0  0  0  0  0  0
  -11.0190  -25.1230   14.7770 C   0  0  0  0  0  0  0  0  0  0  0  0
  -10.4010  -23.0240   13.7390 O   0  0  0  0  0  0  0  0  0  0  0  0
   -8.1472  -14.1244   11.3541 H   0  0  0  0  0  0  0  0  0  0  0  0
   -9.7650  -14.4346   10.6377 H   0  0  0  0  0  0  0  0  0  0  0  0
   -9.0867  -12.7713   10.6377 H   0  0  0  0  0  0  0  0  0  0  0  0
   -8.0584  -13.8283   13.8036 H   0  0  0  0  0  0  0  0  0  0  0  0
  -12.0597  -12.7125   14.6093 H   0  0  0  0  0  0  0  0  0  0  0  0
  -11.6614  -13.0944   10.7496 H   0  0  0  0  0  0  0  0  0  0  0  0
  -12.3360  -10.7940   12.3920 H   0  0  0  0  0  0  0  0  0  0  0  0
  -15.1363  -12.0342    9.5349 H   0  0  0  0  0  0  0  0  0  0  0  0
  -13.5918  -12.8430    9.2582 H   0  0  0  0  0  0  0  0  0  0  0  0
  -15.1345  -12.7494   11.9118 H   0  0  0  0  0  0  0  0  0  0  0  0
  -15.0351  -14.1638   10.7582 H   0  0  0  0  0  0  0  0  0  0  0  0
  -13.4855  -13.8312   12.9670 H   0  0  0  0  0  0  0  0  0  0  0  0
  -12.4190  -15.3950   10.6790 H   0  0  0  0  0  0  0  0  0  0  0  0
  -12.7360  -17.8550   11.0930 H   0  0  0  0  0  0  0  0  0  0  0  0
  -14.2216  -18.2658   13.6698 H   0  0  0  0  0  0  0  0  0  0  0  0
  -14.7425  -19.0927   12.1445 H   0  0  0  0  0  0  0  0  0  0  0  0
  -11.2068  -18.6259   12.2552 H   0  0  0  0  0  0  0  0  0  0  0  0
   -9.6041  -20.4663   12.6735 H   0  0  0  0  0  0  0  0  0  0  0  0
  -14.3624  -21.1308   13.6807 H   0  0  0  0  0  0  0  0  0  0  0  0
  -12.0883  -25.5885   12.5155 H   0  0  0  0  0  0  0  0  0  0  0  0
  -12.3306  -23.9257   11.8806 H   0  0  0  0  0  0  0  0  0  0  0  0
  -10.6898  -24.6569   11.8806 H   0  0  0  0  0  0  0  0  0  0  0  0
  -11.1438  -24.7559   15.8064 H   0  0  0  0  0  0  0  0  0  0  0  0
  -11.6715  -25.9939   14.6166 H   0  0  0  0  0  0  0  0  0  0  0  0
   -9.9708  -25.4157   14.6166 H   0  0  0  0  0  0  0  0  0  0  0  0
  1  2  1  0
  2  3  1  0
  3  4  2  0
  4  5  1  0
  5  6  2  0
  6  7  1  0
  7  8  1  0
  8  9  1  0
  9 10  2  0
  9 11  1  0
 11 12  1  0
 12 13  1  0
 13 14  1  0
 14 15  1  0
 15 16  2  0
 15 17  1  0
 17 18  1  0
 18 19  1  0
 19 20  2  0
 20 21  1  0
 21 22  2  0
 22 23  1  0
 23 24  2  0
 23 25  1  0
 25 26  1  0
 26 27  1  0
 26 28  1  0
 26 29  1  0
  6  2  1  0
 13  7  1  0
 24 19  1  0
 29 22  1  0
  1 30  1  0
  1 31  1  0
  1 32  1  0
  3 33  1  0
  5 34  1  0
  7 35  1  6
  8 36  1  0
 11 37  1  0
 11 38  1  0
 12 39  1  0
 12 40  1  0
 13 41  1  1
 14 42  1  0
 17 43  1  0
 18 44  1  0
 18 45  1  0
 20 46  1  0
 21 47  1  0
 24 48  1  0
 27 49  1  0
 27 50  1  0
 27 51  1  0
 28 52  1  0
 28 53  1  0
 28 54  1  0
M  END
